examples/test_perturbation_outputs/pert_min_cost/pglib_opf_case4661_sdet.m
%% MATPOWER Case Format : Version 2
function mpc = pglib_opf_case4661_sdet
mpc.version = '2';

%%-----  Power Flow Data  -----%%
%% system MVA base
mpc.baseMVA = 100.0;
%% bus data
%    bus_i    type    Pd    Qd    Gs    Bs    area    Vm    Va    baseKV    zone    Vmax    Vmin
mpc.bus = [
	1	2	0.0	0.0	0.0	0.0	1	1.0	0.0	345.0	1	1.1	0.9				
	2	2	0.0	0.0	0.0	0.0	1	1.0	0.0	345.0	1	1.1	0.9				
	3	2	0.0	0.0	0.0	0.0	1	1.0	0.0	345.0	1	1.1	0.9				
	4	1	100.81	50.36999999999999	0.0	0.0	1	1.0	0.0	345.0	1	1.1	0.9				
	5	2	0.0	0.0	0.0	0.0	1	1.0	0.0	345.0	1	1.1	0.9				
	6	1	0.0	0.0	0.0	0.0	1	1.0	0.0	345.0	1	1.1	0.9				
	7	1	0.0	0.0	0.0	0.0	1	1.0	0.0	345.0	1	1.1	0.9				
	8	1	0.0	0.0	0.0	0.0	1	1.0	0.0	345.0	1	1.1	0.9				
	9	1	103.97000000000001	39.67	0.0	0.0	1	1.0	0.0	345.0	1	1.1	0.9				
	10	2	0.0	0.0	0.0	0.0	1	1.0	0.0	345.0	1	1.1	0.9				
	11	1	0.0	0.0	0.0	0.0	1	1.0	0.0	345.0	1	1.1	0.9				
	12	2	7.7	20.0	0.0	0.0	1	1.0	0.0	345.0	1	1.1	0.9				
	13	2	7.8	20.0	0.0	0.0	1	1.0	0.0	345.0	1	1.1	0.9				
	14	1	0.0	0.0	0.0	0.0	1	1.0	0.0	345.0	1	1.1	0.9				
	15	1	0.0	-13.01	0.0	0.0	1	1.0	0.0	345.0	1	1.1	0.9				
	16	1	0.0	0.0	0.0	0.0	1	1.0	0.0	345.0	1	1.1	0.9				
	17	1	0.0	0.0	0.0	94.26	1	1.0	0.0	345.0	1	1.1	0.9				
	18	2	12.0	30.0	0.0	0.0	1	1.0	0.0	345.0	1	1.1	0.9				
	19	2	23.8	60.0	0.0	0.0	1	1.0	0.0	345.0	1	1.1	0.9				
	20	2	38.0	64.0	0.0	0.0	1	1.0	0.0	500.0	1	1.1	0.9				
	21	1	175.56	-19.75	0.0	0.0	1	1.0	0.0	345.0	1	1.1	0.9				
	22	1	0.0	0.0	0.0	0.0	1	1.0	0.0	345.0	1	1.1	0.9				
	23	1	0.0	0.0	0.0	0.0	1	1.0	0.0	345.0	1	1.1	0.9				
	24	2	0.0	0.0	0.0	168.92	1	1.0	0.0	500.0	1	1.1	0.9				
	25	1	0.0	0.0	0.0	-33.19	1	1.0	0.0	345.0	1	1.1	0.9				
	26	1	102.47999999999999	53.02	0.0	0.0	1	1.0	0.0	345.0	1	1.1	0.9				
	27	1	0.0	0.0	0.0	0.0	1	1.0	0.0	345.0	1	1.1	0.9				
	28	1	0.0	0.0	0.0	0.0	1	1.0	0.0	345.0	1	1.1	0.9				
	29	1	33.71	-15.57	0.0	0.0	1	1.0	0.0	345.0	1	1.1	0.9				
	30	1	0.0	0.0	0.0	0.0	1	1.0	0.0	345.0	1	1.1	0.9				
	31	1	0.0	0.0	0.0	0.0	1	1.0	0.0	345.0	1	1.1	0.9				
	32	1	0.0	0.0	0.0	118.65	1	1.0	0.0	500.0	1	1.1	0.9				
	33	1	0.0	0.0	0.0	0.0	1	1.0	0.0	345.0	1	1.1	0.9				
	34	1	0.0	0.0	0.0	0.0	1	1.0	0.0	345.0	1	1.1	0.9				
	35	1	0.0	0.0	0.0	0.0	1	1.0	0.0	345.0	1	1.1	0.9				
	36	1	0.0	0.0	0.0	-16.94	1	1.0	0.0	345.0	1	1.1	0.9				
	37	1	57.879999999999995	42.37	0.0	2.23	1	1.0	0.0	345.0	1	1.1	0.9				
	38	1	0.0	0.0	0.0	5.87	1	1.0	0.0	345.0	1	1.1	0.9				
	39	1	0.0	0.0	0.0	2.56	1	1.0	0.0	345.0	1	1.1	0.9				
	40	1	0.0	0.0	0.0	6.7	1	1.0	0.0	345.0	1	1.1	0.9				
	41	1	0.0	0.0	0.0	40.02	1	1.0	0.0	16.0	1	1.1	0.9				
	42	1	5.72	1.6	0.0	0.0	1	1.0	0.0	138.0	1	1.1	0.9				
	43	1	3.85	1.4	0.0	0.0	1	1.0	0.0	138.0	1	1.1	0.9				
	44	2	53.77000000000001	21.02	0.0	0.0	1	1.0	0.0	138.0	1	1.1	0.9				
	45	2	77.06	34.03	0.0	0.0	1	1.0	0.0	138.0	1	1.1	0.9				
	46	1	3.75	0.5	0.0	0.0	1	1.0	0.0	138.0	1	1.1	0.9				
	47	1	0.0	0.0	0.0	0.0	1	1.0	0.0	138.0	1	1.1	0.9				
	48	1	6.61	1.3	0.0	0.0	1	1.0	0.0	138.0	1	1.1	0.9				
	49	1	5.52	0.6	0.0	0.0	1	1.0	0.0	138.0	1	1.1	0.9				
	50	1	4.14	0.6	0.0	0.0	1	1.0	0.0	138.0	1	1.1	0.9				
	51	1	0.0	0.0	0.0	0.0	1	1.0	0.0	138.0	1	1.1	0.9				
	52	1	6.21	1.2	0.0	0.0	1	1.0	0.0	138.0	1	1.1	0.9				
	53	1	8.68	1.6	0.0	0.0	1	1.0	0.0	138.0	1	1.1	0.9				
	54	1	3.95	0.2	0.0	0.0	1	1.0	0.0	138.0	1	1.1	0.9				
	55	1	27.699999999999996	7.77	0.0	0.0	1	1.0	0.0	138.0	1	1.1	0.9				
	56	1	0.0	0.0	0.0	0.0	1	1.0	0.0	138.0	1	1.1	0.9				
	57	1	8.19	1.8000000000000003	0.0	0.0	1	1.0	0.0	138.0	1	1.1	0.9				
	58	1	0.0	0.0	0.0	0.0	1	1.0	0.0	138.0	1	1.1	0.9				
	59	2	6.02	2.7	0.0	0.0	1	1.0	0.0	138.0	1	1.1	0.9				
	60	1	7.89	0.2	0.0	0.0	1	1.0	0.0	138.0	1	1.1	0.9				
	61	1	0.0	0.0	0.0	0.0	1	1.0	0.0	138.0	1	1.1	0.9				
	62	1	3.65	1.2	0.0	0.0	1	1.0	0.0	138.0	1	1.1	0.9				
	63	1	23.01	3.27	0.0	0.0	1	1.0	0.0	138.0	1	1.1	0.9				
	64	1	2.22	0.71	0.0	-34.1	1	1.0	0.0	138.0	1	1.1	0.9				
	65	1	2.29	0.33	0.0	0.0	1	1.0	0.0	138.0	1	1.1	0.9				
	66	1	2.08	0.84	0.0	7.690000000000001	1	1.0	0.0	138.0	1	1.1	0.9				
	67	1	5.52	1.36	0.0	0.0	1	1.0	0.0	138.0	1	1.1	0.9				
	68	1	67.63	25.33	0.0	0.0	1	1.0	0.0	138.0	1	1.1	0.9				
	69	1	6.559999999999999	2.09	0.0	0.0	1	1.0	0.0	138.0	1	1.1	0.9				
	70	1	53.26	-14.069999999999999	0.0	0.0	1	1.0	0.0	138.0	1	1.1	0.9				
	71	1	110.89	66.23	0.0	0.0	1	1.0	0.0	138.0	1	1.1	0.9				
	72	1	0.0	0.0	0.0	0.0	1	1.0	0.0	138.0	1	1.1	0.9				
	73	1	12.5	2.2	0.0	0.0	1	1.0	0.0	138.0	1	1.1	0.9				
	74	1	7.91	1.37	0.0	0.0	1	1.0	0.0	138.0	1	1.1	0.9				
	75	1	24.4	10.74	0.0	0.0	1	1.0	0.0	138.0	1	1.1	0.9				
	76	1	16.95	4.84	0.0	0.0	1	1.0	0.0	138.0	1	1.1	0.9				
	77	1	7.28	2.63	0.0	0.0	1	1.0	0.0	138.0	1	1.1	0.9				
	78	1	0.0	0.0	0.0	0.0	1	1.0	0.0	138.0	1	1.1	0.9				
	79	1	16.38	4.42	0.0	0.0	1	1.0	0.0	138.0	1	1.1	0.9				
	80	2	1.0	3.0	0.0	0.0	1	1.0	0.0	138.0	1	1.1	0.9				
	81	1	0.0	0.0	0.0	0.0	1	1.0	0.0	138.0	1	1.1	0.9				
	82	1	3.02	1.8900000000000001	0.0	-5.96	1	1.0	0.0	138.0	1	1.1	0.9				
	83	1	6.87	3.6799999999999997	0.0	0.0	1	1.0	0.0	138.0	1	1.1	0.9				
	84	1	3.3300000000000005	0.71	0.0	0.0	1	1.0	0.0	138.0	1	1.1	0.9				
	85	2	15.78	30.64	0.0	0.0	1	1.0	0.0	138.0	1	1.1	0.9				
	86	1	18.75	5.96	0.0	3.8900000000000006	1	1.0	0.0	138.0	1	1.1	0.9				
	87	1	229.29	29.74	0.0	-60.0	1	1.0	0.0	138.0	1	1.1	0.9				
	88	1	11.46	3.7699999999999996	0.0	0.0	1	1.0	0.0	138.0	1	1.1	0.9				
	89	1	12.6	5.64	0.0	0.0	1	1.0	0.0	138.0	1	1.1	0.9				
	90	1	28.1	-1.9299999999999997	0.0	0.0	1	1.0	0.0	138.0	1	1.1	0.9				
	91	1	10.09	5.57	0.0	0.0	1	1.0	0.0	138.0	1	1.1	0.9				
	92	1	0.0	0.0	0.0	0.0	1	1.0	0.0	138.0	1	1.1	0.9				
	93	1	5.2	1.47	0.0	0.0	1	1.0	0.0	138.0	1	1.1	0.9				
	94	1	45.72	-10.43	0.0	0.0	1	1.0	0.0	138.0	1	1.1	0.9				
	95	1	0.0	0.0	0.0	0.0	1	1.0	0.0	138.0	1	1.1	0.9				
	96	1	0.0	0.0	0.0	0.0	1	1.0	0.0	138.0	1	1.1	0.9				
	97	1	3.54	0.21	0.0	0.0	1	1.0	0.0	138.0	1	1.1	0.9				
	98	2	4.4	5.71	0.0	0.0	1	1.0	0.0	138.0	1	1.1	0.9				
	99	1	6.329999999999999	5.23	0.0	12.01	1	1.0	0.0	138.0	1	1.1	0.9				
	100	1	15.17	4.72	0.0	0.0	1	1.0	0.0	138.0	1	1.1	0.9				
	101	1	13.059999999999999	4.72	0.0	0.0	1	1.0	0.0	138.0	1	1.1	0.9				
	102	1	0.0	0.0	0.0	0.0	1	1.0	0.0	138.0	1	1.1	0.9				
	103	1	24.26	11.73	0.0	0.0	1	1.0	0.0	138.0	1	1.1	0.9				
	104	1	9.45	4.22	0.0	-3.12	1	1.0	0.0	138.0	1	1.1	0.9				
	105	1	8.94	4.02	0.0	0.0	1	1.0	0.0	138.0	1	1.1	0.9				
	106	1	9.75	5.12	0.0	0.0	1	1.0	0.0	138.0	1	1.1	0.9				
	107	1	5.53	2.01	0.0	0.0	1	1.0	0.0	138.0	1	1.1	0.9				
	108	1	5.22	1.91	0.0	0.0	1	1.0	0.0	138.0	1	1.1	0.9				
	109	1	12.08	3.61	0.0	0.0	1	1.0	0.0	138.0	1	1.1	0.9				
	110	1	24.24	1.56	0.0	0.0	1	1.0	0.0	138.0	1	1.1	0.9				
	111	1	9.95	2.41	0.0	0.0	1	1.0	0.0	138.0	1	1.1	0.9				
	112	1	127.47	30.18	0.0	0.0	1	1.0	0.0	138.0	1	1.1	0.9				
	113	2	0.0	0.0	0.0	0.0	1	1.0	0.0	138.0	1	1.1	0.9				
	114	1	0.0	0.0	0.0	0.0	1	1.0	0.0	138.0	1	1.1	0.9				
	115	2	7.23	2.61	0.0	0.0	1	1.0	0.0	138.0	1	1.1	0.9				
	116	1	7.13	2.61	0.0	0.0	1	1.0	0.0	138.0	1	1.1	0.9				
	117	1	8.94	2.71	0.0	0.0	1	1.0	0.0	138.0	1	1.1	0.9				
	118	1	5.93	1.41	0.0	0.0	1	1.0	0.0	138.0	1	1.1	0.9				
	119	1	0.0	0.0	0.0	45.0	1	1.0	0.0	16.0	1	1.1	0.9				
	120	2	26.22	20.39	0.0	0.0	1	1.0	0.0	138.0	1	1.1	0.9				
	121	1	26.94	-4.46	0.0	0.0	1	1.0	0.0	138.0	1	1.1	0.9				
	122	1	3.12	1.41	0.0	0.0	1	1.0	0.0	138.0	1	1.1	0.9				
	123	1	0.0	0.0	0.0	0.0	1	1.0	0.0	138.0	1	1.1	0.9				
	124	2	0.0	0.0	0.0	0.0	1	1.0	0.0	138.0	1	1.1	0.9				
	125	1	8.84	2.91	0.0	0.0	1	1.0	0.0	138.0	1	1.1	0.9				
	126	1	5.42	2.31	0.0	0.0	1	1.0	0.0	138.0	1	1.1	0.9				
	127	1	4.72	2.11	0.0	0.0	1	1.0	0.0	138.0	1	1.1	0.9				
	128	1	9.45	3.71	0.0	0.0	1	1.0	0.0	138.0	1	1.1	0.9				
	129	1	13.059999999999999	4.22	0.0	0.0	1	1.0	0.0	138.0	1	1.1	0.9				
	130	1	9.04	5.52	0.0	0.0	1	1.0	0.0	138.0	1	1.1	0.9				
	131	1	13.99	11.8	0.0	0.0	1	1.0	0.0	138.0	1	1.1	0.9				
	132	2	12.06	9.44	0.0	0.0	1	1.0	0.0	138.0	1	1.1	0.9				
	133	1	0.0	0.0	0.0	0.0	1	1.0	0.0	138.0	1	1.1	0.9				
	134	1	8.94	3.82	0.0	0.0	1	1.0	0.0	138.0	1	1.1	0.9				
	135	1	11.05	3.72	0.0	0.0	1	1.0	0.0	138.0	1	1.1	0.9				
	136	1	11.05	3.8599999999999994	0.0	-1.17	1	1.0	0.0	138.0	1	1.1	0.9				
	137	1	3.82	1.0	0.0	0.0	1	1.0	0.0	138.0	1	1.1	0.9				
	138	1	20.4	6.83	0.0	0.0	1	1.0	0.0	138.0	1	1.1	0.9				
	139	1	9.45	3.11	0.0	0.0	1	1.0	0.0	138.0	1	1.1	0.9				
	140	1	0.0	0.0	0.0	0.0	1	1.0	0.0	138.0	1	1.1	0.9				
	141	1	10.45	5.22	0.0	0.0	1	1.0	0.0	138.0	1	1.1	0.9				
	142	1	4.72	2.11	0.0	0.0	1	1.0	0.0	138.0	1	1.1	0.9				
	143	1	6.83	2.31	0.0	0.0	1	1.0	0.0	138.0	1	1.1	0.9				
	144	1	17.35	-0.22999999999999998	0.0	0.0	1	1.0	0.0	138.0	1	1.1	0.9				
	145	1	12.76	4.32	0.0	0.0	1	1.0	0.0	138.0	1	1.1	0.9				
	146	1	0.0	0.0	0.0	0.0	1	1.0	0.0	138.0	1	1.1	0.9				
	147	2	16.78	6.329999999999999	0.0	0.0	1	1.0	0.0	138.0	1	1.1	0.9				
	148	1	15.67	4.72	0.0	0.0	1	1.0	0.0	138.0	1	1.1	0.9				
	149	1	15.67	4.22	0.0	0.0	1	1.0	0.0	138.0	1	1.1	0.9				
	150	1	10.95	3.19	0.0	0.0	1	1.0	0.0	138.0	1	1.1	0.9				
	151	1	25.869999999999997	0.56	0.0	0.0	1	1.0	0.0	138.0	1	1.1	0.9				
	152	1	6.43	2.81	0.0	0.0	1	1.0	0.0	138.0	1	1.1	0.9				
	153	2	83.9	27.21	0.0	0.0	1	1.0	0.0	138.0	1	1.1	0.9				
	154	1	4.12	2.51	0.0	0.0	1	1.0	0.0	138.0	1	1.1	0.9				
	155	1	57.98	32.55	0.0	0.0	1	1.0	0.0	138.0	1	1.1	0.9				
	156	1	25.120000000000005	8.34	0.0	0.0	1	1.0	0.0	138.0	1	1.1	0.9				
	157	2	19.19	12.25	0.0	0.0	1	1.0	0.0	138.0	1	1.1	0.9				
	158	1	13.16	7.629999999999999	0.0	0.0	1	1.0	0.0	138.0	1	1.1	0.9				
	159	2	18.79	6.7299999999999995	0.0	0.0	1	1.0	0.0	138.0	1	1.1	0.9				
	160	2	22.0	20.15	0.0	0.0	1	1.0	0.0	138.0	1	1.1	0.9				
	161	1	12.46	5.42	0.0	0.0	1	1.0	0.0	138.0	1	1.1	0.9				
	162	1	41.9	16.77	0.0	0.0	1	1.0	0.0	138.0	1	1.1	0.9				
	163	1	21.0	8.33	0.0	0.0	1	1.0	0.0	138.0	1	1.1	0.9				
	164	1	2.11	0.8	0.0	0.0	1	1.0	0.0	138.0	1	1.1	0.9				
	165	1	44.41	14.96	0.0	0.0	1	1.0	0.0	138.0	1	1.1	0.9				
	166	1	50.74000000000001	16.87	0.0	0.0	1	1.0	0.0	138.0	1	1.1	0.9				
	167	1	14.17	5.22	0.0	0.0	1	1.0	0.0	138.0	1	1.1	0.9				
	168	1	0.0	0.0	0.0	0.0	1	1.0	0.0	500.0	1	1.1	0.9				
	169	1	0.0	0.0	0.0	0.0	2	1.0	0.0	500.0	2	1.1	0.9				
	170	2	0.0	0.0	0.0	0.0	2	1.0	0.0	500.0	2	1.1	0.9				
	171	2	0.0	0.0	0.0	0.0	2	1.0	0.0	500.0	2	1.1	0.9				
	172	2	0.0	0.0	0.0	0.0	2	1.0	0.0	500.0	2	1.1	0.9				
	173	1	122.12	-142.76	0.0	0.0	2	1.0	0.0	500.0	2	1.1	0.9				
	174	1	0.0	0.0	0.0	0.0	2	1.0	0.0	500.0	2	1.1	0.9				
	175	2	0.0	0.0	0.0	0.0	2	1.0	0.0	500.0	2	1.1	0.9				
	176	2	0.0	0.0	0.0	0.0	2	1.0	0.0	500.0	2	1.1	0.9				
	177	2	0.0	0.0	0.0	0.0	2	1.0	0.0	500.0	2	1.1	0.9				
	178	2	0.0	0.0	0.0	0.0	2	1.0	0.0	500.0	2	1.1	0.9				
	179	1	4.5	3.37	0.0	0.0	2	1.0	0.0	500.0	2	1.1	0.9				
	180	2	0.0	0.0	0.0	0.0	2	1.0	0.0	500.0	2	1.1	0.9				
	181	2	0.0	0.0	0.0	0.0	2	1.0	0.0	500.0	2	1.1	0.9				
	182	1	0.0	0.0	0.0	0.0	2	1.0	0.0	500.0	2	1.1	0.9				
	183	2	0.0	0.0	0.0	0.0	2	1.0	0.0	500.0	2	1.1	0.9				
	184	2	0.0	0.0	0.0	0.0	2	1.0	0.0	500.0	2	1.1	0.9				
	185	2	0.0	0.0	0.0	0.0	2	1.0	0.0	500.0	2	1.1	0.9				
	186	2	0.0	0.0	0.0	0.0	2	1.0	0.0	500.0	2	1.1	0.9				
	187	1	0.0	0.0	0.0	0.0	2	1.0	0.0	500.0	2	1.1	0.9				
	188	2	0.0	0.0	0.0	0.0	2	1.0	0.0	500.0	2	1.1	0.9				
	189	2	0.0	0.0	0.0	0.0	2	1.0	0.0	500.0	2	1.1	0.9				
	190	2	0.0	0.0	0.0	0.0	2	1.0	0.0	500.0	2	1.1	0.9				
	191	1	0.0	0.0	0.0	0.0	2	1.0	0.0	500.0	2	1.1	0.9				
	192	2	0.0	0.0	0.0	0.0	2	1.0	0.0	500.0	2	1.1	0.9				
	193	2	0.0	0.0	0.0	0.0	2	1.0	0.0	500.0	2	1.1	0.9				
	194	2	0.0	0.0	0.0	0.0	2	1.0	0.0	500.0	2	1.1	0.9				
	195	1	0.0	0.0	0.0	0.0	2	1.0	0.0	500.0	2	1.1	0.9				
	196	1	26.44	39.0	0.0	0.0	2	1.0	0.0	500.0	2	1.1	0.9				
	197	2	0.0	0.0	0.0	0.0	2	1.0	0.0	500.0	2	1.1	0.9				
	198	2	0.0	0.0	0.0	0.0	2	1.0	0.0	500.0	2	1.1	0.9				
	199	1	0.0	0.0	0.0	0.0	2	1.0	0.0	500.0	2	1.1	0.9				
	200	1	0.0	0.0	0.0	0.0	2	1.0	0.0	500.0	2	1.1	0.9				
...
];

%% generator data
%    bus    Pg    Qg    Qmax    Qmin    Vg    mBase    status    Pmax    Pmin    Pc1    Pc2    Qc1min    Qc1max    Qc2min    Qc2max    ramp_agc    ramp_10    ramp_30    ramp_q    apf
mpc.gen = [
	1	33.205	0.0	157.99	-157.99	1.0	100.0	1	64.82	1.59	0.0	0.0	0.0	0.0	0.0	0.0	0.0	0.0	0.0	0.0	64.818				
	2	112.96	-4.39	35.12	-43.9	1.0	100.0	1	170.7	55.22	0.0	0.0	0.0	0.0	0.0	0.0	0.0	0.0	0.0	0.0	170.701				
	3	27.655	-14.855000000000002	118.84000000000002	-148.55	1.0	100.0	1	46.11	9.2	0.0	0.0	0.0	0.0	0.0	0.0	0.0	0.0	0.0	0.0	46.109				
	5	192.11	0.0	93.15	-93.15	1.0	100.0	1	228.68	155.54	0.0	0.0	0.0	0.0	0.0	0.0	0.0	0.0	0.0	0.0	228.682				
	10	64.315	-8.13	65.04	-81.3	1.0	100.0	1	83.06	45.57	0.0	0.0	0.0	0.0	0.0	0.0	0.0	0.0	0.0	0.0	83.063				
	12	114.58500000000001	45.625	106.25	-15.0	1.0	166.81	1	137.5	91.67	0.0	0.0	0.0	0.0	0.0	0.0	0.0	0.0	0.0	0.0	137.5				
	12	0.0	0.0	40.0	-40.0	1.0	120.0	0	120.0	100.0	0.0	0.0	0.0	0.0	0.0	0.0	0.0	0.0	0.0	0.0	120.0				
	13	114.58500000000001	35.0	85.0	-15.0	1.0	166.81	1	137.5	91.67	0.0	0.0	0.0	0.0	0.0	0.0	0.0	0.0	0.0	0.0	137.5				
	15	0.0	0.0	16.67	-16.67	1.0	50.0	0	50.0	40.0	0.0	0.0	0.0	0.0	0.0	0.0	0.0	0.0	0.0	0.0	50.0				
	18	187.5	40.0	112.00000000000001	-32.0	1.0	225.0	1	225.0	150.0	0.0	0.0	0.0	0.0	0.0	0.0	0.0	0.0	0.0	0.0	225.0				
	19	200.0	54.0	140.0	-32.0	1.0	275.06	1	250.0	150.0	0.0	0.0	0.0	0.0	0.0	0.0	0.0	0.0	0.0	0.0	250.0				
	19	0.0	0.0	66.67	-66.67	1.0	200.0	0	200.0	150.0	0.0	0.0	0.0	0.0	0.0	0.0	0.0	0.0	0.0	0.0	200.0				
	19	166.665	49.61	131.22	-32.0	1.0	234.36	1	200.0	133.33	0.0	0.0	0.0	0.0	0.0	0.0	0.0	0.0	0.0	0.0	200.0				
	20	325.0	54.25	367.5	-259.0	1.0	566.05	1	463.99999999999994	186.0	0.0	0.0	0.0	0.0	0.0	0.0	0.0	0.0	0.0	0.0	464.0				
	24	317.85	-3.95	31.61	-39.51	1.0	100.0	1	442.98	192.72	0.0	0.0	0.0	0.0	0.0	0.0	0.0	0.0	0.0	0.0	442.978				
	25	0.0	0.0	33.33	-33.33	1.0	100.0	0	85.2	70.2	0.0	0.0	0.0	0.0	0.0	0.0	0.0	0.0	0.0	0.0	85.204				
	32	0.0	0.0	33.33	-33.33	1.0	100.0	0	177.48	162.48	0.0	0.0	0.0	0.0	0.0	0.0	0.0	0.0	0.0	0.0	177.483				
	44	35.0	17.5	56.99999999999999	-22.0	1.0	61.03	1	55.00000000000001	15.0	0.0	0.0	0.0	0.0	0.0	0.0	0.0	0.0	0.0	0.0	55.0				
	45	41.875	17.5	56.99999999999999	-22.0	1.0	68.9	1	68.75	15.0	0.0	0.0	0.0	0.0	0.0	0.0	0.0	0.0	0.0	0.0	68.75				
	45	40.0	21.5	71.0	-28.000000000000004	1.0	77.0	1	77.0	3.0	0.0	0.0	0.0	0.0	0.0	0.0	0.0	0.0	0.0	0.0	77.0				
	59	25.52	0.0	13.639999999999999	-13.639999999999999	1.0	100.0	1	36.54	14.499999999999998	0.0	0.0	0.0	0.0	0.0	0.0	0.0	0.0	0.0	0.0	36.54				
	64	0.0	0.0	33.33	-33.33	1.0	100.0	0	38.85	23.85	0.0	0.0	0.0	0.0	0.0	0.0	0.0	0.0	0.0	0.0	38.851				
	80	0.0	0.0	16.67	-16.67	1.0	50.0	0	50.0	35.0	0.0	0.0	0.0	0.0	0.0	0.0	0.0	0.0	0.0	0.0	50.0				
	80	25.835	-83.5	10.0	-177.0	1.0	28.0	1	35.0	16.67	0.0	0.0	0.0	0.0	0.0	0.0	0.0	0.0	0.0	0.0	35.0				
	82	0.0	0.0	33.33	-33.33	1.0	100.0	0	30.55	15.55	0.0	0.0	0.0	0.0	0.0	0.0	0.0	0.0	0.0	0.0	30.546				
	84	0.0	0.0	66.67	-66.67	1.0	200.0	0	200.0	150.0	0.0	0.0	0.0	0.0	0.0	0.0	0.0	0.0	0.0	0.0	200.0				
	85	175.0	46.5	111.00000000000001	-18.0	1.0	253.76	1	200.0	150.0	0.0	0.0	0.0	0.0	0.0	0.0	0.0	0.0	0.0	0.0	200.0				
	98	0.0	0.0	16.67	-16.67	1.0	50.0	0	50.0	0.0	0.0	0.0	0.0	0.0	0.0	0.0	0.0	0.0	0.0	0.0	50.0				
	98	27.500000000000004	-66.65	41.7	-175.0	1.0	55.0	1	55.00000000000001	0.0	0.0	0.0	0.0	0.0	0.0	0.0	0.0	0.0	0.0	0.0	55.0				
	98	0.0	0.0	18.33	-18.33	1.0	55.0	0	55.00000000000001	0.0	0.0	0.0	0.0	0.0	0.0	0.0	0.0	0.0	0.0	0.0	55.0				
	99	0.0	0.0	11.67	-11.67	1.0	35.0	0	35.0	0.0	0.0	0.0	0.0	0.0	0.0	0.0	0.0	0.0	0.0	0.0	35.0				
	99	0.0	0.0	10.67	-10.67	1.0	32.0	0	32.0	0.0	0.0	0.0	0.0	0.0	0.0	0.0	0.0	0.0	0.0	0.0	32.0				
	110	0.0	0.0	2.33	-2.33	1.0	7.0	0	292.0	5.0	0.0	0.0	0.0	0.0	0.0	0.0	0.0	0.0	0.0	0.0	292.0				
	113	57.65	0.0	11.04	-11.04	1.0	100.0	1	71.88	43.42	0.0	0.0	0.0	0.0	0.0	0.0	0.0	0.0	0.0	0.0	71.879				
	115	136.0	10.5	187.0	-166.0	1.0	4.02	1	271.0	1.0	0.0	0.0	0.0	0.0	0.0	0.0	0.0	0.0	0.0	0.0	271.0				
	120	0.0	0.0	1.33	-1.33	1.0	4.0	0	279.0	0.0	0.0	0.0	0.0	0.0	0.0	0.0	0.0	0.0	0.0	0.0	279.0				
	120	0.0	0.0	1.33	-1.33	1.0	4.0	0	250.99999999999997	0.0	0.0	0.0	0.0	0.0	0.0	0.0	0.0	0.0	0.0	0.0	251.0				
	120	0.0	0.0	1.33	-1.33	1.0	4.0	0	266.0	0.0	0.0	0.0	0.0	0.0	0.0	0.0	0.0	0.0	0.0	0.0	266.0				
	120	10.0	-85.0	15.0	-185.0	1.0	22.88	1	20.0	0.0	0.0	0.0	0.0	0.0	0.0	0.0	0.0	0.0	0.0	0.0	20.0				
	120	10.0	-81.125	18.75	-181.0	1.0	20.0	1	20.0	0.0	0.0	0.0	0.0	0.0	0.0	0.0	0.0	0.0	0.0	0.0	20.0				
	124	12.5	1.5	179.0	-176.0	1.0	13.31	1	20.0	5.0	0.0	0.0	0.0	0.0	0.0	0.0	0.0	0.0	0.0	0.0	20.0				
	124	0.0	0.0	4.0	-4.0	1.0	12.0	0	20.0	5.0	0.0	0.0	0.0	0.0	0.0	0.0	0.0	0.0	0.0	0.0	20.0				
	128	0.0	0.0	1.67	-1.67	1.0	5.0	0	274.0	4.0	0.0	0.0	0.0	0.0	0.0	0.0	0.0	0.0	0.0	0.0	274.0				
	132	8.25	-77.94	13.119999999999997	-169.0	1.0	15.84	1	16.5	0.0	0.0	0.0	0.0	0.0	0.0	0.0	0.0	0.0	0.0	0.0	16.5				
	132	127.49999999999999	2.0	178.0	-174.0	1.0	5.0	1	254.99999999999997	0.0	0.0	0.0	0.0	0.0	0.0	0.0	0.0	0.0	0.0	0.0	255.0				
	132	0.0	0.0	1.67	-1.67	1.0	5.0	0	262.0	0.0	0.0	0.0	0.0	0.0	0.0	0.0	0.0	0.0	0.0	0.0	262.0				
	133	0.0	0.0	4.33	-4.33	1.0	13.0	0	13.0	0.0	0.0	0.0	0.0	0.0	0.0	0.0	0.0	0.0	0.0	0.0	13.0				
	136	0.0	0.0	2.0	-2.0	1.0	6.0	0	298.0	5.0	0.0	0.0	0.0	0.0	0.0	0.0	0.0	0.0	0.0	0.0	298.0				
	147	141.0	-2.5	176.0	-181.0	1.0	1.0	1	282.0	0.0	0.0	0.0	0.0	0.0	0.0	0.0	0.0	0.0	0.0	0.0	282.0				
	153	0.0	0.0	3.6699999999999995	-3.6699999999999995	1.0	11.0	0	11.0	0.0	0.0	0.0	0.0	0.0	0.0	0.0	0.0	0.0	0.0	0.0	11.0				
	153	0.0	0.0	2.0	-2.0	1.0	6.0	0	270.0	0.0	0.0	0.0	0.0	0.0	0.0	0.0	0.0	0.0	0.0	0.0	270.0				
	153	20.0	-72.0	24.0	-168.0	1.0	41.48	1	40.0	0.0	0.0	0.0	0.0	0.0	0.0	0.0	0.0	0.0	0.0	0.0	40.0				
	153	20.0	-77.5	26.0	-181.0	1.0	40.0	1	40.0	0.0	0.0	0.0	0.0	0.0	0.0	0.0	0.0	0.0	0.0	0.0	40.0				
	157	17.5	8.5	194.0	-177.0	1.0	35.0	1	35.0	0.0	0.0	0.0	0.0	0.0	0.0	0.0	0.0	0.0	0.0	0.0	35.0				
	157	0.0	0.0	11.67	-11.67	1.0	35.0	0	35.0	0.0	0.0	0.0	0.0	0.0	0.0	0.0	0.0	0.0	0.0	0.0	35.0				
	159	28.625	93.865	196.0	-8.27	1.0	100.0	1	44.72	12.53	0.0	0.0	0.0	0.0	0.0	0.0	0.0	0.0	0.0	0.0	44.724				
	160	16.69	3.5000000000000004	17.0	-10.0	1.0	34.12	1	33.38	0.0	0.0	0.0	0.0	0.0	0.0	0.0	0.0	0.0	0.0	0.0	33.375				
	160	13.5	3.5000000000000004	17.0	-10.0	1.0	27.0	1	27.0	0.0	0.0	0.0	0.0	0.0	0.0	0.0	0.0	0.0	0.0	0.0	27.0				
	170	183.75	0.0	330.75	-330.75	1.0	100.0	1	367.5	0.0	0.0	0.0	0.0	0.0	0.0	0.0	0.0	0.0	0.0	0.0	367.5				
	171	692.385	-2.805	22.43	-28.04	1.0	100.0	1	1108.43	276.34	0.0	0.0	0.0	0.0	0.0	0.0	0.0	0.0	0.0	0.0	1108.425				
	172	135.0	0.0	194.4	-194.4	1.0	100.0	1	270.0	0.0	0.0	0.0	0.0	0.0	0.0	0.0	0.0	0.0	0.0	0.0	270.0				
	175	142.5	0.0	205.20000000000002	-205.20000000000002	1.0	100.0	1	285.0	0.0	0.0	0.0	0.0	0.0	0.0	0.0	0.0	0.0	0.0	0.0	285.0				
	176	142.5	0.0	205.20000000000002	-205.20000000000002	1.0	100.0	1	285.0	0.0	0.0	0.0	0.0	0.0	0.0	0.0	0.0	0.0	0.0	0.0	285.0				
	177	142.5	0.0	205.20000000000002	-205.20000000000002	1.0	100.0	1	285.0	0.0	0.0	0.0	0.0	0.0	0.0	0.0	0.0	0.0	0.0	0.0	285.0				
	178	194.25	0.0	349.65	-349.65	1.0	100.0	1	388.5	0.0	0.0	0.0	0.0	0.0	0.0	0.0	0.0	0.0	0.0	0.0	388.5				
	180	216.175	0.0	389.11	-389.11	1.0	100.0	1	432.35	0.0	0.0	0.0	0.0	0.0	0.0	0.0	0.0	0.0	0.0	0.0	432.348				
	181	216.175	0.0	389.11	-389.11	1.0	100.0	1	432.35	0.0	0.0	0.0	0.0	0.0	0.0	0.0	0.0	0.0	0.0	0.0	432.347				
	183	202.515	0.0	364.53	-364.53	1.0	100.0	1	405.03	0.0	0.0	0.0	0.0	0.0	0.0	0.0	0.0	0.0	0.0	0.0	405.03				
	184	202.49	0.0	364.49	-364.49	1.0	100.0	1	404.98	0.0	0.0	0.0	0.0	0.0	0.0	0.0	0.0	0.0	0.0	0.0	404.985				
	185	202.52500000000003	0.0	364.55	-364.55	1.0	100.0	1	405.05000000000007	0.0	0.0	0.0	0.0	0.0	0.0	0.0	0.0	0.0	0.0	0.0	405.051				
	186	202.515	0.0	364.53	-364.53	1.0	100.0	1	405.03	0.0	0.0	0.0	0.0	0.0	0.0	0.0	0.0	0.0	0.0	0.0	405.028				
	188	200.02499999999998	0.0	360.05	-360.05	1.0	100.0	1	400.04999999999995	0.0	0.0	0.0	0.0	0.0	0.0	0.0	0.0	0.0	0.0	0.0	400.05				
	189	200.02499999999998	0.0	360.05	-360.05	1.0	100.0	1	400.04999999999995	0.0	0.0	0.0	0.0	0.0	0.0	0.0	0.0	0.0	0.0	0.0	400.05				
	190	199.95	0.0	359.91	-359.91	1.0	100.0	1	399.9	0.0	0.0	0.0	0.0	0.0	0.0	0.0	0.0	0.0	0.0	0.0	399.9				
	192	192.75	0.0	346.95	-346.95	1.0	100.0	1	385.5	0.0	0.0	0.0	0.0	0.0	0.0	0.0	0.0	0.0	0.0	0.0	385.5				
	193	192.75	0.0	346.95	-346.95	1.0	100.0	1	385.5	0.0	0.0	0.0	0.0	0.0	0.0	0.0	0.0	0.0	0.0	0.0	385.5				
	194	204.42499999999998	0.0	367.96	-367.96	1.0	100.0	1	408.84999999999997	0.0	0.0	0.0	0.0	0.0	0.0	0.0	0.0	0.0	0.0	0.0	408.848				
	197	667.61	0.0	95.0	-95.0	1.0	100.0	1	776.82	558.4	0.0	0.0	0.0	0.0	0.0	0.0	0.0	0.0	0.0	0.0	776.819				
	198	726.57	0.0	237.46999999999997	-237.46999999999997	1.0	100.0	1	871.88	581.26	0.0	0.0	0.0	0.0	0.0	0.0	0.0	0.0	0.0	0.0	871.884				
	203	560.595	11.37	113.7	-90.96	1.0	100.0	1	917.82	203.37	0.0	0.0	0.0	0.0	0.0	0.0	0.0	0.0	0.0	0.0	917.82				
	204	0.0	0.0	33.33	-33.33	1.0	100.0	0	285.0	0.0	0.0	0.0	0.0	0.0	0.0	0.0	0.0	0.0	0.0	0.0	285.0				
	204	0.0	0.0	33.33	-33.33	1.0	100.0	0	263.0	0.0	0.0	0.0	0.0	0.0	0.0	0.0	0.0	0.0	0.0	0.0	263.0				
	205	0.0	0.0	33.33	-33.33	1.0	100.0	0	256.0	0.0	0.0	0.0	0.0	0.0	0.0	0.0	0.0	0.0	0.0	0.0	256.0				
	205	0.0	0.0	33.33	-33.33	1.0	100.0	0	292.0	0.0	0.0	0.0	0.0	0.0	0.0	0.0	0.0	0.0	0.0	0.0	292.0				
	206	1666.29	0.0	205.53	-205.53	1.0	100.0	1	1966.77	1365.81	0.0	0.0	0.0	0.0	0.0	0.0	0.0	0.0	0.0	0.0	1966.771				
	211	0.0	0.0	33.33	-33.33	1.0	100.0	0	269.0	0.0	0.0	0.0	0.0	0.0	0.0	0.0	0.0	0.0	0.0	0.0	269.0				
	211	0.0	0.0	33.33	-33.33	1.0	100.0	0	269.0	0.0	0.0	0.0	0.0	0.0	0.0	0.0	0.0	0.0	0.0	0.0	269.0				
	220	0.0	0.0	33.33	-33.33	1.0	100.0	0	95.92	80.92	0.0	0.0	0.0	0.0	0.0	0.0	0.0	0.0	0.0	0.0	95.919				
	228	394.02	0.0	121.05	-121.05	1.0	100.0	1	451.68	336.36	0.0	0.0	0.0	0.0	0.0	0.0	0.0	0.0	0.0	0.0	451.68				
	229	303.1	2.265	24.78	-20.25	1.0	100.0	1	363.72	242.48	0.0	0.0	0.0	0.0	0.0	0.0	0.0	0.0	0.0	0.0	363.72				
	230	249.06	1.695	16.98	-13.59	1.0	100.0	1	287.55	210.57000000000002	0.0	0.0	0.0	0.0	0.0	0.0	0.0	0.0	0.0	0.0	287.547				
	246	0.0	0.0	33.33	-33.33	1.0	100.0	0	256.0	0.0	0.0	0.0	0.0	0.0	0.0	0.0	0.0	0.0	0.0	0.0	256.0				
	247	0.0	0.0	33.33	-33.33	1.0	100.0	0	250.99999999999997	0.0	0.0	0.0	0.0	0.0	0.0	0.0	0.0	0.0	0.0	0.0	251.0				
	258	126.565	0.0	182.25	-182.25	1.0	100.0	1	253.13	0.0	0.0	0.0	0.0	0.0	0.0	0.0	0.0	0.0	0.0	0.0	253.125				
	259	126.565	0.0	182.25	-182.25	1.0	100.0	1	253.13	0.0	0.0	0.0	0.0	0.0	0.0	0.0	0.0	0.0	0.0	0.0	253.125				
	260	126.565	0.0	182.25	-182.25	1.0	100.0	1	253.13	0.0	0.0	0.0	0.0	0.0	0.0	0.0	0.0	0.0	0.0	0.0	253.125				
	262	206.07999999999998	0.0	370.95	-370.95	1.0	100.0	1	412.15999999999997	0.0	0.0	0.0	0.0	0.0	0.0	0.0	0.0	0.0	0.0	0.0	412.164				
	307	209.575	0.0	377.23	-377.23	1.0	100.0	1	419.15	0.0	0.0	0.0	0.0	0.0	0.0	0.0	0.0	0.0	0.0	0.0	419.147				
	316	19.55	-2.415	19.34	-24.17	1.0	100.0	1	32.91	6.19	0.0	0.0	0.0	0.0	0.0	0.0	0.0	0.0	0.0	0.0	32.912				
	319	24.15	91.525	193.0	-9.95	1.0	100.0	1	43.57	4.73	0.0	0.0	0.0	0.0	0.0	0.0	0.0	0.0	0.0	0.0	43.567				
	321	23.44	0.0	33.75	-33.75	1.0	100.0	1	46.88	0.0	0.0	0.0	0.0	0.0	0.0	0.0	0.0	0.0	0.0	0.0	46.875				
	323	23.44	0.0	33.75	-33.75	1.0	100.0	1	46.88	0.0	0.0	0.0	0.0	0.0	0.0	0.0	0.0	0.0	0.0	0.0	46.875				
	324	52.82	93.735	189.0	-1.53	1.0	100.0	1	64.44	41.2	0.0	0.0	0.0	0.0	0.0	0.0	0.0	0.0	0.0	0.0	64.438				
	326	21.565	0.0	31.05	-31.05	1.0	100.0	1	43.13	0.0	0.0	0.0	0.0	0.0	0.0	0.0	0.0	0.0	0.0	0.0	43.125				
	327	21.565	0.0	31.05	-31.05	1.0	100.0	1	43.13	0.0	0.0	0.0	0.0	0.0	0.0	0.0	0.0	0.0	0.0	0.0	43.125				
	330	34.69	0.0	49.95	-49.95	1.0	100.0	1	69.38	0.0	0.0	0.0	0.0	0.0	0.0	0.0	0.0	0.0	0.0	0.0	69.375				
	334	9.375	0.0	13.5	-13.5	1.0	100.0	1	18.75	0.0	0.0	0.0	0.0	0.0	0.0	0.0	0.0	0.0	0.0	0.0	18.75				
	335	9.375	0.0	13.5	-13.5	1.0	100.0	1	18.75	0.0	0.0	0.0	0.0	0.0	0.0	0.0	0.0	0.0	0.0	0.0	18.75				
	336	9.375	0.0	13.5	-13.5	1.0	100.0	1	18.75	0.0	0.0	0.0	0.0	0.0	0.0	0.0	0.0	0.0	0.0	0.0	18.75				
	340	43.885	0.0	63.18	-63.18	1.0	100.0	1	87.77	0.0	0.0	0.0	0.0	0.0	0.0	0.0	0.0	0.0	0.0	0.0	87.771				
	342	16.925	0.0	24.37	-24.37	1.0	100.0	1	33.85	0.0	0.0	0.0	0.0	0.0	0.0	0.0	0.0	0.0	0.0	0.0	33.85				
	345	0.0	0.0	33.33	-33.33	1.0	100.0	0	34.72	19.73	0.0	0.0	0.0	0.0	0.0	0.0	0.0	0.0	0.0	0.0	34.725				
	346	23.525	0.0	35.64	-35.64	1.0	100.0	1	34.71	12.34	0.0	0.0	0.0	0.0	0.0	0.0	0.0	0.0	0.0	0.0	34.714				
	348	62.425	-1.31	10.48	-13.100000000000001	1.0	100.0	1	76.89	47.96	0.0	0.0	0.0	0.0	0.0	0.0	0.0	0.0	0.0	0.0	76.887				
	353	23.185	0.0	29.960000000000004	-29.960000000000004	1.0	100.0	1	43.63	2.74	0.0	0.0	0.0	0.0	0.0	0.0	0.0	0.0	0.0	0.0	43.626				
	355	0.0	0.0	33.33	-33.33	1.0	100.0	0	95.57	80.57	0.0	0.0	0.0	0.0	0.0	0.0	0.0	0.0	0.0	0.0	95.575				
	359	79.13	96.14	196.0	-3.72	1.0	100.0	1	93.14	65.12	0.0	0.0	0.0	0.0	0.0	0.0	0.0	0.0	0.0	0.0	93.142				
	370	0.0	0.0	33.33	-33.33	1.0	100.0	0	35.05	20.05	0.0	0.0	0.0	0.0	0.0	0.0	0.0	0.0	0.0	0.0	35.048				
	376	23.44	0.0	33.75	-33.75	1.0	100.0	1	46.88	0.0	0.0	0.0	0.0	0.0	0.0	0.0	0.0	0.0	0.0	0.0	46.875				
	384	14.065	0.0	20.25	-20.25	1.0	100.0	1	28.13	0.0	0.0	0.0	0.0	0.0	0.0	0.0	0.0	0.0	0.0	0.0	28.125				
	387	37.345	-4.23	33.85	-42.31	1.0	100.0	1	47.76	26.93	0.0	0.0	0.0	0.0	0.0	0.0	0.0	0.0	0.0	0.0	47.76				
	388	0.0	0.0	33.33	-33.33	1.0	100.0	0	47.75	32.75	0.0	0.0	0.0	0.0	0.0	0.0	0.0	0.0	0.0	0.0	47.746				
	391	34.7	96.12	196.0	-3.7599999999999993	1.0	100.0	1	44.67	24.73	0.0	0.0	0.0	0.0	0.0	0.0	0.0	0.0	0.0	0.0	44.671				
	402	25.64	0.0	18.25	-18.25	1.0	100.0	1	38.25	13.03	0.0	0.0	0.0	0.0	0.0	0.0	0.0	0.0	0.0	0.0	38.249				
	404	44.5	-70.9	41.2	-183.0	1.0	78.0	1	78.0	11.0	0.0	0.0	0.0	0.0	0.0	0.0	0.0	0.0	0.0	0.0	78.0				
	422	53.625	-60.75000000000001	52.5	-174.0	1.0	83.96	1	86.25	21.0	0.0	0.0	0.0	0.0	0.0	0.0	0.0	0.0	0.0	0.0	86.25				
	441	134.36	62.5	131.0	-6.0	1.0	258.66	1	268.72	0.0	0.0	0.0	0.0	0.0	0.0	0.0	0.0	0.0	0.0	0.0	268.721				
	453	17.75	0.0	14.32	-14.32	1.0	100.0	1	27.169999999999998	8.33	0.0	0.0	0.0	0.0	0.0	0.0	0.0	0.0	0.0	0.0	27.174				
	471	138.315	84.09	179.0	-10.82	1.0	100.0	1	187.96	88.67	0.0	0.0	0.0	0.0	0.0	0.0	0.0	0.0	0.0	0.0	187.961				
	489	78.275	-1.675	20.33	-23.68	1.0	100.0	1	113.92	42.63	0.0	0.0	0.0	0.0	0.0	0.0	0.0	0.0	0.0	0.0	113.922				
	494	183.125	59.5	152.0	-33.0	1.0	306.24	1	256.25	110.00000000000001	0.0	0.0	0.0	0.0	0.0	0.0	0.0	0.0	0.0	0.0	256.25				
	494	0.0	0.0	73.33	-73.33	1.0	220.0	0	220.00000000000003	125.0	0.0	0.0	0.0	0.0	0.0	0.0	0.0	0.0	0.0	0.0	220.0				
	495	0.0	0.0	75.0	-75.0	1.0	225.0	0	225.0	125.0	0.0	0.0	0.0	0.0	0.0	0.0	0.0	0.0	0.0	0.0	225.0				
	495	183.125	76.625	186.25	-33.0	1.0	304.12	1	256.25	110.00000000000001	0.0	0.0	0.0	0.0	0.0	0.0	0.0	0.0	0.0	0.0	256.25				
	496	195.625	53.87499999999999	149.0	-41.25	1.0	274.96	1	281.25	110.00000000000001	0.0	0.0	0.0	0.0	0.0	0.0	0.0	0.0	0.0	0.0	281.25				
	496	172.5	53.87499999999999	149.0	-41.25	1.0	228.01	1	225.0	120.0	0.0	0.0	0.0	0.0	0.0	0.0	0.0	0.0	0.0	0.0	225.0				
	497	395.0	158.0	363.0	-47.0	1.0	535.0	1	535.0	254.99999999999997	0.0	0.0	0.0	0.0	0.0	0.0	0.0	0.0	0.0	0.0	535.0				
	498	405.0	124.0	348.0	-100.0	1.0	560.0	1	560.0	250.0	0.0	0.0	0.0	0.0	0.0	0.0	0.0	0.0	0.0	0.0	560.0				
	502	115.005	0.0	20.73	-20.73	1.0	100.0	1	147.17	82.84	0.0	0.0	0.0	0.0	0.0	0.0	0.0	0.0	0.0	0.0	147.174				
	504	154.8	-3.015	24.12	-30.15	1.0	100.0	1	233.65999999999997	75.94	0.0	0.0	0.0	0.0	0.0	0.0	0.0	0.0	0.0	0.0	233.656				
	505	0.0	0.0	75.0	-75.0	1.0	225.0	0	225.0	129.0	0.0	0.0	0.0	0.0	0.0	0.0	0.0	0.0	0.0	0.0	225.0				
	505	0.0	0.0	75.0	-75.0	1.0	225.0	0	225.0	129.0	0.0	0.0	0.0	0.0	0.0	0.0	0.0	0.0	0.0	0.0	225.0				
	505	0.0	0.0	33.33	-33.33	1.0	100.0	0	90.65	75.65	0.0	0.0	0.0	0.0	0.0	0.0	0.0	0.0	0.0	0.0	90.647				
	514	0.0	0.0	33.33	-33.33	1.0	100.0	0	30.219999999999995	15.22	0.0	0.0	0.0	0.0	0.0	0.0	0.0	0.0	0.0	0.0	30.222				
	515	41.51	91.19	191.0	-8.62	1.0	100.0	1	74.82	8.2	0.0	0.0	0.0	0.0	0.0	0.0	0.0	0.0	0.0	0.0	74.821				
	516	0.0	0.0	33.33	-33.33	1.0	100.0	0	90.09	75.09	0.0	0.0	0.0	0.0	0.0	0.0	0.0	0.0	0.0	0.0	90.088				
	517	49.315	-2.515	20.15	-25.180000000000003	1.0	100.0	1	88.02	10.61	0.0	0.0	0.0	0.0	0.0	0.0	0.0	0.0	0.0	0.0	88.022				
	518	0.0	0.0	33.33	-33.33	1.0	100.0	0	57.35	42.35	0.0	0.0	0.0	0.0	0.0	0.0	0.0	0.0	0.0	0.0	57.353				
	519	0.0	0.0	33.33	-33.33	1.0	100.0	0	284.0	1.16	0.0	0.0	0.0	0.0	0.0	0.0	0.0	0.0	0.0	0.0	284.0				
	520	0.0	0.0	2.0	-2.0	1.0	6.0	0	258.0	1.0	0.0	0.0	0.0	0.0	0.0	0.0	0.0	0.0	0.0	0.0	258.0				
	520	0.0	0.0	2.0	-2.0	1.0	6.0	0	292.0	1.0	0.0	0.0	0.0	0.0	0.0	0.0	0.0	0.0	0.0	0.0	292.0				
	537	0.0	0.0	33.33	-33.33	1.0	100.0	0	69.86	54.86	0.0	0.0	0.0	0.0	0.0	0.0	0.0	0.0	0.0	0.0	69.858				
	538	41.875	17.5	56.99999999999999	-22.0	1.0	68.9	1	68.75	15.0	0.0	0.0	0.0	0.0	0.0	0.0	0.0	0.0	0.0	0.0	68.75				
	538	40.0	21.5	71.0	-28.000000000000004	1.0	77.0	1	77.0	3.0	0.0	0.0	0.0	0.0	0.0	0.0	0.0	0.0	0.0	0.0	77.0				
	544	0.0	0.0	2.33	-2.33	1.0	7.0	0	280.0	3.0	0.0	0.0	0.0	0.0	0.0	0.0	0.0	0.0	0.0	0.0	280.0				
	558	0.0	0.0	1.33	-1.33	1.0	4.0	0	297.0	3.0	0.0	0.0	0.0	0.0	0.0	0.0	0.0	0.0	0.0	0.0	297.0				
	565	51.0	-67.0	35.0	-169.0	1.0	63.02	1	65.0	37.0	0.0	0.0	0.0	0.0	0.0	0.0	0.0	0.0	0.0	0.0	65.0				
	565	0.0	0.0	10.0	-10.0	1.0	30.0	0	30.0	10.0	0.0	0.0	0.0	0.0	0.0	0.0	0.0	0.0	0.0	0.0	30.0				
	565	0.0	0.0	35.0	-35.0	1.0	105.0	0	105.0	50.0	0.0	0.0	0.0	0.0	0.0	0.0	0.0	0.0	0.0	0.0	105.0				
	565	77.5	-47.0	85.0	-179.0	1.0	105.0	1	105.0	50.0	0.0	0.0	0.0	0.0	0.0	0.0	0.0	0.0	0.0	0.0	105.0				
	599	195.625	57.99999999999999	149.0	-33.0	1.0	249.58	1	256.25	135.0	0.0	0.0	0.0	0.0	0.0	0.0	0.0	0.0	0.0	0.0	256.25				
	600	0.0	0.0	75.0	-75.0	1.0	225.0	0	225.0	110.00000000000001	0.0	0.0	0.0	0.0	0.0	0.0	0.0	0.0	0.0	0.0	225.0				
	603	0.0	0.0	56.67	-56.67	1.0	170.0	0	170.0	66.0	0.0	0.0	0.0	0.0	0.0	0.0	0.0	0.0	0.0	0.0	170.0				
	603	0.0	0.0	20.33	-20.33	1.0	61.0	0	61.0	34.0	0.0	0.0	0.0	0.0	0.0	0.0	0.0	0.0	0.0	0.0	61.0				
	605	0.0	0.0	7.000000000000001	-7.000000000000001	1.0	21.0	0	21.0	0.0	0.0	0.0	0.0	0.0	0.0	0.0	0.0	0.0	0.0	0.0	21.0				
	624	63.07000000000001	89.51	185.0	-5.98	1.0	100.0	1	97.0	29.14	0.0	0.0	0.0	0.0	0.0	0.0	0.0	0.0	0.0	0.0	96.995				
	627	0.0	0.0	0.67	-0.67	1.0	2.0	0	280.0	1.0	0.0	0.0	0.0	0.0	0.0	0.0	0.0	0.0	0.0	0.0	280.0				
	627	32.28	93.99	195.0	-7.02	1.0	100.0	1	48.18	16.38	0.0	0.0	0.0	0.0	0.0	0.0	0.0	0.0	0.0	0.0	48.183				
	630	0.0	0.0	12.0	-12.0	1.0	36.0	0	36.0	0.0	0.0	0.0	0.0	0.0	0.0	0.0	0.0	0.0	0.0	0.0	36.0				
	632	0.0	0.0	1.0	-1.0	1.0	3.0	0	295.0	2.0	0.0	0.0	0.0	0.0	0.0	0.0	0.0	0.0	0.0	0.0	295.0				
	635	0.0	0.0	33.33	-33.33	1.0	100.0	0	254.99999999999997	3.12	0.0	0.0	0.0	0.0	0.0	0.0	0.0	0.0	0.0	0.0	255.0				
	638	0.0	0.0	33.33	-33.33	1.0	100.0	0	25.259999999999998	10.26	0.0	0.0	0.0	0.0	0.0	0.0	0.0	0.0	0.0	0.0	25.259				
	640	0.0	0.0	33.33	-33.33	1.0	100.0	0	295.0	3.64	0.0	0.0	0.0	0.0	0.0	0.0	0.0	0.0	0.0	0.0	295.0				
	649	0.0	0.0	2.0	-2.0	1.0	6.0	0	283.0	1.0	0.0	0.0	0.0	0.0	0.0	0.0	0.0	0.0	0.0	0.0	283.0				
	651	0.0	0.0	33.33	-33.33	1.0	100.0	0	269.0	3.54	0.0	0.0	0.0	0.0	0.0	0.0	0.0	0.0	0.0	0.0	269.0				
	667	129.0	-62.0	50.0	-174.0	1.0	157.0	1	150.0	108.0	0.0	0.0	0.0	0.0	0.0	0.0	0.0	0.0	0.0	0.0	150.0				
	668	56.00000000000001	3.0	190.0	-184.0	1.0	112.0	1	112.00000000000001	0.0	0.0	0.0	0.0	0.0	0.0	0.0	0.0	0.0	0.0	0.0	112.0				
	669	162.0	0.0	201.2	-201.2	1.0	100.0	1	194.4	129.6	0.0	0.0	0.0	0.0	0.0	0.0	0.0	0.0	0.0	0.0	194.4				
	675	194.385	70.0	150.0	-10.0	1.0	282.49	1	268.77	120.0	0.0	0.0	0.0	0.0	0.0	0.0	0.0	0.0	0.0	0.0	268.77				
	676	194.375	55.00000000000001	120.0	-10.0	1.0	281.34	1	268.75	120.0	0.0	0.0	0.0	0.0	0.0	0.0	0.0	0.0	0.0	0.0	268.75				
	677	195.625	66.875	168.75	-35.0	1.0	252.98	1	256.25	135.0	0.0	0.0	0.0	0.0	0.0	0.0	0.0	0.0	0.0	0.0	256.25				
	679	0.0	0.0	45.0	-45.0	1.0	135.0	0	135.0	-135.0	0.0	0.0	0.0	0.0	0.0	0.0	0.0	0.0	0.0	0.0	135.0				
	679	0.0	0.0	45.0	-45.0	1.0	135.0	0	135.0	-135.0	0.0	0.0	0.0	0.0	0.0	0.0	0.0	0.0	0.0	0.0	135.0				
	680	0.0	0.0	45.0	-45.0	1.0	135.0	0	135.0	-135.0	0.0	0.0	0.0	0.0	0.0	0.0	0.0	0.0	0.0	0.0	135.0				
	680	0.0	0.0	45.0	-45.0	1.0	135.0	0	135.0	-135.0	0.0	0.0	0.0	0.0	0.0	0.0	0.0	0.0	0.0	0.0	135.0				
	687	0.0	0.0	16.67	-16.67	1.0	50.0	0	50.0	38.0	0.0	0.0	0.0	0.0	0.0	0.0	0.0	0.0	0.0	0.0	50.0				
	687	0.0	0.0	16.67	-16.67	1.0	50.0	0	50.0	38.0	0.0	0.0	0.0	0.0	0.0	0.0	0.0	0.0	0.0	0.0	50.0				
	687	0.0	0.0	16.67	-16.67	1.0	50.0	0	50.0	38.0	0.0	0.0	0.0	0.0	0.0	0.0	0.0	0.0	0.0	0.0	50.0				
	688	0.0	0.0	16.67	-16.67	1.0	50.0	0	50.0	38.0	0.0	0.0	0.0	0.0	0.0	0.0	0.0	0.0	0.0	0.0	50.0				
	697	0.0	0.0	33.33	-33.33	1.0	100.0	0	262.0	0.12	0.0	0.0	0.0	0.0	0.0	0.0	0.0	0.0	0.0	0.0	262.0				
	698	194.375	55.00000000000001	120.0	-10.0	1.0	273.78	1	268.75	120.0	0.0	0.0	0.0	0.0	0.0	0.0	0.0	0.0	0.0	0.0	268.75				
	700	31.47	0.0	18.24	-18.24	1.0	100.0	1	60.35	2.59	0.0	0.0	0.0	0.0	0.0	0.0	0.0	0.0	0.0	0.0	60.349				
	704	113.12500000000001	39.0	83.0	-5.0	1.0	160.45	1	156.25	70.0	0.0	0.0	0.0	0.0	0.0	0.0	0.0	0.0	0.0	0.0	156.25				
	704	97.5	39.0	83.0	-5.0	1.0	143.77	1	125.0	70.0	0.0	0.0	0.0	0.0	0.0	0.0	0.0	0.0	0.0	0.0	125.0				
	726	128.5	5.5	195.0	-184.0	1.0	42.43	1	257.0	0.0	0.0	0.0	0.0	0.0	0.0	0.0	0.0	0.0	0.0	0.0	257.0				
	727	85.865	-3.6000000000000005	28.79	-35.99	1.0	100.0	1	121.92	49.81	0.0	0.0	0.0	0.0	0.0	0.0	0.0	0.0	0.0	0.0	121.921				
	731	0.0	0.0	33.33	-33.33	1.0	100.0	0	229.72000000000003	214.71999999999997	0.0	0.0	0.0	0.0	0.0	0.0	0.0	0.0	0.0	0.0	229.718				
	732	0.0	0.0	33.33	-33.33	1.0	100.0	0	48.71	33.71	0.0	0.0	0.0	0.0	0.0	0.0	0.0	0.0	0.0	0.0	48.706				
	736	-10.5	21.5	105.0	-62.0	1.0	216.55	1	179.0	-200.0	0.0	0.0	0.0	0.0	0.0	0.0	0.0	0.0	0.0	0.0	179.0				
	736	-10.5	21.5	105.0	-62.0	1.0	179.0	1	179.0	-200.0	0.0	0.0	0.0	0.0	0.0	0.0	0.0	0.0	0.0	0.0	179.0				
...
];

%% branch data
%    f_bus    t_bus    r    x    b    rateA    rateB    rateC    ratio    angle    status    angmin    angmax
mpc.branch = [
	1	2	0.00558	0.04147	0.0629	231.0	231.0	231.0	0	0	1	-29.999999999999996	29.999999999999996								
	1	2639	0.0001	0.01	0.0	224.58	269.49	336.87	0	0	1	-29.999999999999996	29.999999999999996								
	2	3	2.0e-5	0.00021	0.0	876.0	876.0	876.0	0	0	1	-29.999999999999996	29.999999999999996								
	4	2	0.00059	0.07897	0.0	160.0	160.0	160.0	0.9999	0.0	1	-29.999999999999996	29.999999999999996								
	2	7	0.01262	0.09326	0.14324	231.0	231.0	231.0	0	0	1	-29.999999999999996	29.999999999999996								
	2	2681	0.0001	0.01	0.0	193.09	231.70999999999998	289.64	0	0	1	-29.999999999999996	29.999999999999996								
	3	9	0.00525	0.03847	0.06053	231.0	231.0	231.0	0	0	1	-29.999999999999996	29.999999999999996								
	3	482	0.0001	0.01	0.0	134.24	161.08	201.35	0	0	1	-29.999999999999996	29.999999999999996								
	41	4	-0.00467	0.16067	0.0	260.0	312.0	390.0	0.94157	0.0	1	-29.999999999999996	29.999999999999996								
	5	12	0.01068	0.0475	0.09495	339.0	339.0	339.0	0	0	1	-29.999999999999996	29.999999999999996								
	5	946	0.0001	0.01	0.0	234.85	281.81	352.27	0	0	1	-29.999999999999996	29.999999999999996								
	6	7	2.0e-5	0.00021	0.0	876.0	876.0	876.0	0	0	1	-29.999999999999996	29.999999999999996								
	6	18	0.01436	0.10729	0.16081	231.0	231.0	231.0	0	0	1	-29.999999999999996	29.999999999999996								
	49	6	0.00155	0.06612	0.0	160.0	160.0	160.0	1.07516	0.0	1	-29.999999999999996	29.999999999999996								
	50	7	0.00157	0.06612	0.0	160.0	160.0	160.0	1.06463	0.0	1	-29.999999999999996	29.999999999999996								
	8	9	2.0e-5	0.00021	0.0	876.0	876.0	876.0	0	0	1	-29.999999999999996	29.999999999999996								
	8	15	0.01698	0.12459	0.1957	231.0	231.0	231.0	0	0	1	-29.999999999999996	29.999999999999996								
	10	11	2.0e-5	0.00021	0.0	876.0	876.0	876.0	0	0	1	-29.999999999999996	29.999999999999996								
	10	4562	0.0001	0.01	0.0	172.6	207.12	258.9	0	0	1	-29.999999999999996	29.999999999999996								
	11	13	0.01298	0.06738	0.10284	250.0	250.0	250.0	0	0	1	-29.999999999999996	29.999999999999996								
	12	13	2.0e-5	0.00021	0.0	876.0	876.0	876.0	0	0	1	-29.999999999999996	29.999999999999996								
	12	16	0.00698	0.0374	0.05463	426.88999999999993	554.95	554.95	0	0	1	-29.999999999999996	29.999999999999996								
	64	12	0.00165	0.0625	0.0	160.0	160.0	160.0	1.03303	0.0	1	-29.999999999999996	29.999999999999996								
	13	15	0.00436	0.03202	0.0503	400.0	400.0	400.0	0	0	1	-29.999999999999996	29.999999999999996								
	14	19	0.01105	0.08107	0.12824	341.0	341.0	341.0	0	0	1	-29.999999999999996	29.999999999999996								
	14	22	0.00355	0.02607	0.04096	341.0	341.0	341.0	0	0	1	-29.999999999999996	29.999999999999996								
	67	14	0.00118	0.06517	0.0	257.74	335.07	335.07	1.09791	0.0	1	-29.999999999999996	29.999999999999996								
	15	16	2.0e-5	0.00021	0.0	876.0	876.0	876.0	0	0	1	-29.999999999999996	29.999999999999996								
	15	19	0.0006	0.00351	0.00555	341.0	341.0	341.0	0	0	1	-29.999999999999996	29.999999999999996								
	81	15	0.00165	0.06851	0.0	261.75	340.27	340.27	1.08505	0.0	1	-29.999999999999996	29.999999999999996								
	16	18	0.0006	0.00351	0.00555	341.0	341.0	341.0	0	0	1	-29.999999999999996	29.999999999999996								
	16	23	0.01851	0.1088	0.14435	250.0	250.0	250.0	0	0	1	-29.999999999999996	29.999999999999996								
	80	16	0.00165	0.06851	0.0	160.0	160.0	160.0	1.03303	0.0	1	-29.999999999999996	29.999999999999996								
	17	22	0.00934	0.0539	0.08683	287.0	287.0	287.0	0	0	1	-29.999999999999996	29.999999999999996								
	17	923	0.0001	0.01	0.0	139.52	167.42	209.28	0	0	1	-29.999999999999996	29.999999999999996								
	18	19	2.0e-5	0.00021	0.0	876.0	876.0	876.0	0	0	1	-29.999999999999996	29.999999999999996								
	18	20	0.0003	0.02732	0.0	619.71	743.65	929.57	1.10037	0.0	1	-29.999999999999996	29.999999999999996								
	18	33	0.01682	0.08909	0.12993	426.87	554.94	554.94	0	0	1	-29.999999999999996	29.999999999999996								
	84	18	0.00163	0.07033	0.0	255.36000000000004	331.97	331.97	1.04795	0.0	1	-29.999999999999996	29.999999999999996								
	19	34	0.01384	0.08702	0.13484	416.82	541.87	541.87	0	0	1	-29.999999999999996	29.999999999999996								
	19	39	0.01118	0.06597	0.10778	405.98	527.78	527.78	0	0	1	-29.999999999999996	29.999999999999996								
	21	23	0.013	0.07589	0.11484	267.0	267.0	267.0	0	0	1	-29.999999999999996	29.999999999999996								
	22	23	2.0e-5	0.00021	0.0	876.0	876.0	876.0	0	0	1	-29.999999999999996	29.999999999999996								
	22	24	0.00035	0.02375	0.0	500.0	500.0	500.0	1.08671	0.0	1	-29.999999999999996	29.999999999999996								
	22	26	0.00236	0.01411	0.02031	229.0	229.0	229.0	0	0	1	-29.999999999999996	29.999999999999996								
	23	25	0.01736	0.10969	0.16268	287.0	287.0	287.0	0	0	1	-29.999999999999996	29.999999999999996								
	87	23	0.00165	0.0593	0.0	361.19	433.43	541.79	1.10254	0.0	1	-29.999999999999996	29.999999999999996								
	87	24	0.00153	0.06206	0.0	362.94	435.53	544.42	1.10126	0.0	1	-29.999999999999996	29.999999999999996								
	24	168	0.00019	0.00196	0.06877	831.0	831.0	831.0	0	0	1	-29.999999999999996	29.999999999999996								
	24	477	0.0001	0.01	0.0	217.91	261.49	326.86	0	0	1	-29.999999999999996	29.999999999999996								
	25	2702	0.0001	0.01	0.0	83.7	98.6	125.55000000000001	0	0	1	-29.999999999999996	29.999999999999996								
	27	34	0.00186	0.02155	0.05317	461.00000000000006	461.00000000000006	461.00000000000006	0	0	1	-29.999999999999996	29.999999999999996								
	102	27	0.00155	0.06585	0.0	160.0	160.0	160.0	1.08057	0.0	1	-29.999999999999996	29.999999999999996								
	28	29	2.0e-5	0.00021	0.0	876.0	876.0	876.0	0	0	1	-29.999999999999996	29.999999999999996								
	28	34	0.02738	0.14254	0.20047	222.00000000000003	222.00000000000003	222.00000000000003	0	0	1	-29.999999999999996	29.999999999999996								
	109	28	0.00015	0.06524	0.0	160.0	160.0	160.0	1.07325	0.0	1	-29.999999999999996	29.999999999999996								
	30	31	2.0e-5	0.00021	0.0	876.0	876.0	876.0	0	0	1	-29.999999999999996	29.999999999999996								
	30	32	0.00033	0.02711	0.0	500.0	500.0	500.0	1.08613	0.0	1	-29.999999999999996	29.999999999999996								
	30	37	0.00556	0.04198	0.06158	231.0	231.0	231.0	0	0	1	-29.999999999999996	29.999999999999996								
	112	30	0.00163	0.06671	0.0	160.0	160.0	160.0	1.06463	0.0	1	-29.999999999999996	29.999999999999996								
	31	33	0.008	0.05936	0.10081	231.0	231.0	231.0	0	0	1	-29.999999999999996	29.999999999999996								
	114	31	0.00163	0.06671	0.0	160.0	160.0	160.0	1.05908	0.0	1	-29.999999999999996	29.999999999999996								
	32	2610	0.0001	0.01	0.0	166.89	200.26999999999998	250.34	0	0	1	-29.999999999999996	29.999999999999996								
	33	34	2.0e-5	0.00021	0.0	876.0	876.0	876.0	0	0	1	-29.999999999999996	29.999999999999996								
	118	33	0.00159	0.06736	0.0	257.58	334.85	334.85	1.07383	0.0	1	-29.999999999999996	29.999999999999996								
	35	34	0.00076	0.0789	0.0	243.52999999999997	316.58	316.58	0.9999	0.0	1	-29.999999999999996	29.999999999999996								
	117	35	0.00077	-0.01223	0.0	234.06000000000003	304.28	304.28	1.04712	0.0	1	-29.999999999999996	29.999999999999996								
	119	35	-0.00017	0.16709	0.0	260.0	312.0	390.0	0.94157	0.0	1	-29.999999999999996	29.999999999999996								
	36	39	0.02709	0.15992	0.26125	197.0	197.0	197.0	0	0	1	-29.999999999999996	29.999999999999996								
	36	502	0.0001	0.01	0.0	83.7	98.6	125.55000000000001	0	0	1	-29.999999999999996	29.999999999999996								
	37	38	2.0e-5	0.00021	0.0	876.0	876.0	876.0	0	0	1	-29.999999999999996	29.999999999999996								
	38	40	0.00738	0.05486	0.09318	231.0	231.0	231.0	0	0	1	-29.999999999999996	29.999999999999996								
	155	38	0.00119	0.06565	0.0	160.0	160.0	160.0	1.09622	0.0	1	-29.999999999999996	29.999999999999996								
	39	40	2.0e-5	0.00021	0.0	876.0	876.0	876.0	0	0	1	-29.999999999999996	29.999999999999996								
	157	39	0.00161	0.06736	0.0	199.46	259.3	259.3	1.09825	0.0	1	-29.999999999999996	29.999999999999996								
	157	40	0.00165	0.06671	0.0	160.0	160.0	160.0	1.09825	0.0	1	-29.999999999999996	29.999999999999996								
	42	43	8.0e-5	0.00083	0.0	438.0	438.0	438.0	0	0	1	-29.999999999999996	29.999999999999996								
	42	56	0.01132	0.03777	0.00369	90.0	90.0	90.0	0	0	1	-29.999999999999996	29.999999999999996								
	43	53	0.0043	0.01298	0.00157	90.0	90.0	90.0	0	0	1	-29.999999999999996	29.999999999999996								
	44	56	0.0162	0.05405	0.00527	90.0	90.0	90.0	0	0	1	-29.999999999999996	29.999999999999996								
	45	50	0.00959	0.03099	0.0032	90.0	90.0	90.0	0	0	1	-29.999999999999996	29.999999999999996								
	46	47	8.0e-5	0.00083	0.0	438.0	438.0	438.0	0	0	1	-29.999999999999996	29.999999999999996								
	46	50	0.0076	0.02545	0.00249	90.0	90.0	90.0	0	0	1	-29.999999999999996	29.999999999999996								
	47	63	0.01835	0.06025	0.00608	90.0	90.0	90.0	0	0	1	-29.999999999999996	29.999999999999996								
	48	59	0.00719	0.01256	0.0012	57.99999999999999	57.99999999999999	57.99999999999999	0	0	1	-29.999999999999996	29.999999999999996								
	49	56	0.02455	0.0743	0.00772	77.0	77.0	77.0	0	0	1	-29.999999999999996	29.999999999999996								
	49	57	0.00198	0.0062	0.00069	90.0	90.0	90.0	0	0	1	-29.999999999999996	29.999999999999996								
	49	60	0.00562	0.01711	0.0018	95.65	124.34	124.34	0	0	1	-29.999999999999996	29.999999999999996								
	51	54	0.00835	0.0262	0.00292	57.99999999999999	57.99999999999999	57.99999999999999	0	0	1	-29.999999999999996	29.999999999999996								
	52	53	8.0e-5	0.00083	0.0	438.0	438.0	438.0	0	0	1	-29.999999999999996	29.999999999999996								
	52	58	0.00273	0.00818	0.00099	90.0	90.0	90.0	0	0	1	-29.999999999999996	29.999999999999996								
	54	55	8.0e-5	0.00083	0.0	438.0	438.0	438.0	0	0	1	-29.999999999999996	29.999999999999996								
	54	61	0.00479	0.01603	0.00156	90.0	90.0	90.0	0	0	1	-29.999999999999996	29.999999999999996								
	57	58	8.0e-5	0.00083	0.0	438.0	438.0	438.0	0	0	1	-29.999999999999996	29.999999999999996								
	59	64	0.04207	0.1086	0.01107	62.0	62.0	62.0	0	0	1	-29.999999999999996	29.999999999999996								
	59	3482	0.0001	0.01	0.0	83.7	98.6	125.55000000000001	0	0	1	-29.999999999999996	29.999999999999996								
	60	61	8.0e-5	0.00083	0.0	438.0	438.0	438.0	0	0	1	-29.999999999999996	29.999999999999996								
	62	63	0.00182	0.00603	0.00059	90.0	90.0	90.0	0	0	1	-29.999999999999996	29.999999999999996								
	64	75	0.01471	0.03736	0.00382	71.08	92.4	92.4	0	0	1	-29.999999999999996	29.999999999999996								
	64	90	0.00504	0.01413	0.00145	102.23	122.68	153.35	0	0	1	-29.999999999999996	29.999999999999996								
	64	3507	0.0001	0.01	0.0	83.7	98.6	125.55000000000001	0	0	1	-29.999999999999996	29.999999999999996								
	65	80	0.03331	0.07982	0.00783	146.7	190.71	190.71	0	0	1	-29.999999999999996	29.999999999999996								
	65	89	0.01169	0.03957	0.00392	105.0	105.0	105.0	0	0	1	-29.999999999999996	29.999999999999996								
	66	67	0.00537	0.01512	0.00153	102.0	102.0	102.0	0	0	1	-29.999999999999996	29.999999999999996								
	66	3054	0.0001	0.01	0.0	83.7	98.6	125.55000000000001	0	0	1	-29.999999999999996	29.999999999999996								
	67	68	8.0e-5	0.00083	0.0	438.0	438.0	438.0	0	0	1	-29.999999999999996	29.999999999999996								
	67	86	0.00686	0.02198	0.00228	123.0	123.0	123.0	0	0	1	-29.999999999999996	29.999999999999996								
	68	3450	0.0001	0.01	0.0	83.7	98.6	125.55000000000001	0	0	1	-29.999999999999996	29.999999999999996								
	69	87	0.00731	0.01279	0.00122	78.0	78.0	78.0	0	0	1	-29.999999999999996	29.999999999999996								
	70	93	0.01445	0.04894	0.00484	105.0	105.0	105.0	0	0	1	-29.999999999999996	29.999999999999996								
	70	4592	0.0001	0.01	0.0	83.7	98.6	125.55000000000001	0	0	1	-29.999999999999996	29.999999999999996								
	71	72	8.0e-5	0.00083	0.0	438.0	438.0	438.0	0	0	1	-29.999999999999996	29.999999999999996								
	71	81	0.0005	0.00397	0.00056	195.59	254.26999999999998	254.26999999999998	0	0	1	-29.999999999999996	29.999999999999996								
	71	91	0.00099	0.00793	0.00077	171.0	171.0	171.0	0	0	1	-29.999999999999996	29.999999999999996								
	73	88	0.00202	0.00325	0.02903	80.0	80.0	80.0	0	0	1	-29.999999999999996	29.999999999999996								
	74	85	0.01364	0.0238	0.00227	69.0	69.0	69.0	0	0	1	-29.999999999999996	29.999999999999996								
	76	85	0.00868	0.01512	0.00145	69.0	69.0	69.0	0	0	1	-29.999999999999996	29.999999999999996								
	77	95	0.02042	0.03616	0.00345	105.0	105.0	105.0	0	0	1	-29.999999999999996	29.999999999999996								
	78	96	0.00069	0.00235	0.00023	48.0	48.0	48.0	0	0	1	-29.999999999999996	29.999999999999996								
	79	96	8.0e-5	0.00014	1.0e-5	48.0	48.0	48.0	0	0	1	-29.999999999999996	29.999999999999996								
	80	83	0.00975	0.03207	0.00329	115.25000000000001	138.3	172.87	0	0	1	-29.999999999999996	29.999999999999996								
	80	85	0.00537	0.01545	0.00181	103.0	103.0	103.0	0	0	1	-29.999999999999996	29.999999999999996								
	80	130	0.0681	0.17298	0.01756	129.19	167.95	167.95	0	0	1	-29.999999999999996	29.999999999999996								
	82	97	0.03744	0.09653	0.00989	92.01	110.40999999999998	138.01	0	0	1	-29.999999999999996	29.999999999999996								
	82	3307	0.0001	0.01	0.0	83.7	98.6	125.55000000000001	0	0	1	-29.999999999999996	29.999999999999996								
	83	97	0.03488	0.09488	0.00972	100.87000000000002	121.04000000000002	151.31	0	0	1	-29.999999999999996	29.999999999999996								
	84	85	8.0e-5	0.00083	0.0	438.0	438.0	438.0	0	0	1	-29.999999999999996	29.999999999999996								
	84	92	0.00397	0.02917	0.00283	196.0	196.0	196.0	0	0	1	-29.999999999999996	29.999999999999996								
	84	96	0.03814	0.06671	0.00636	48.0	48.0	48.0	0	0	1	-29.999999999999996	29.999999999999996								
	84	141	0.04463	0.11521	0.01205	102.0	102.0	102.0	0	0	1	-29.999999999999996	29.999999999999996								
	84	152	0.03719	0.09669	0.01016	102.0	102.0	102.0	0	0	1	-29.999999999999996	29.999999999999996								
	85	95	0.01654	0.05601	0.00554	142.94	185.82	185.82	0	0	1	-29.999999999999996	29.999999999999996								
	85	134	0.05628	0.18322	0.01876	123.0	123.0	123.0	0	0	1	-29.999999999999996	29.999999999999996								
	85	139	0.08207	0.20008	0.02217	102.0	102.0	102.0	0	0	1	-29.999999999999996	29.999999999999996								
	86	4638	0.0001	0.01	0.0	83.7	98.6	125.55000000000001	0	0	1	-29.999999999999996	29.999999999999996								
	87	88	0.00959	0.02474	0.00251	102.0	102.0	102.0	0	0	1	-29.999999999999996	29.999999999999996								
	89	94	0.02236	0.07573	0.0075	105.0	105.0	105.0	0	0	1	-29.999999999999996	29.999999999999996								
	90	4659	0.0001	0.01	0.0	83.7	98.6	125.55000000000001	0	0	1	-29.999999999999996	29.999999999999996								
	91	92	8.0e-5	0.00083	0.0	438.0	438.0	438.0	0	0	1	-29.999999999999996	29.999999999999996								
	93	95	0.02679	0.09072	0.00898	105.0	105.0	105.0	0	0	1	-29.999999999999996	29.999999999999996								
	98	99	8.0e-5	0.00083	0.0	438.0	438.0	438.0	0	0	1	-29.999999999999996	29.999999999999996								
	98	129	0.00264	0.00752	0.00075	102.0	102.0	102.0	0	0	1	-29.999999999999996	29.999999999999996								
	98	150	0.01314	0.04182	0.00448	102.0	102.0	102.0	0	0	1	-29.999999999999996	29.999999999999996								
	98	162	0.00157	0.00496	0.00051	123.0	123.0	123.0	0	0	1	-29.999999999999996	29.999999999999996								
	98	164	0.00215	0.00719	0.00072	16.0	16.0	16.0	0	0	1	-29.999999999999996	29.999999999999996								
	99	162	0.00157	0.00496	0.00051	123.0	123.0	123.0	0	0	1	-29.999999999999996	29.999999999999996								
	99	3341	0.0001	0.01	0.0	83.7	98.6	125.55000000000001	0	0	1	-29.999999999999996	29.999999999999996								
	100	101	0.00306	0.00992	0.00102	123.0	123.0	123.0	0	0	1	-29.999999999999996	29.999999999999996								
	100	115	0.00331	0.01083	0.00109	113.99999999999999	113.99999999999999	113.99999999999999	0	0	1	-29.999999999999996	29.999999999999996								
	101	118	0.00421	0.01058	0.00106	102.0	102.0	102.0	0	0	1	-29.999999999999996	29.999999999999996								
	102	103	8.0e-5	0.00083	0.0	438.0	438.0	438.0	0	0	1	-29.999999999999996	29.999999999999996								
	102	138	0.00868	0.0281	0.00295	76.0	76.0	76.0	0	0	1	-29.999999999999996	29.999999999999996								
	103	116	0.0186	0.0562	0.00581	102.0	102.0	102.0	0	0	1	-29.999999999999996	29.999999999999996								
	103	4601	0.0001	0.01	0.0	83.7	98.6	125.55000000000001	0	0	1	-29.999999999999996	29.999999999999996								
	104	105	8.0e-5	0.00083	0.0	438.0	438.0	438.0	0	0	1	-29.999999999999996	29.999999999999996								
	104	4593	0.0001	0.01	0.0	83.7	98.6	125.55000000000001	0	0	1	-29.999999999999996	29.999999999999996								
	105	157	0.02769	0.0895	0.00917	95.0	95.0	95.0	0	0	1	-29.999999999999996	29.999999999999996								
	106	114	0.02868	0.09256	0.00951	123.0	123.0	123.0	0	0	1	-29.999999999999996	29.999999999999996								
	106	143	0.01851	0.0595	0.00627	123.0	123.0	123.0	0	0	1	-29.999999999999996	29.999999999999996								
	107	117	0.00562	0.01893	0.00189	16.0	16.0	16.0	0	0	1	-29.999999999999996	29.999999999999996								
	108	118	0.00562	0.01893	0.00189	16.0	16.0	16.0	0	0	1	-29.999999999999996	29.999999999999996								
	109	147	0.00124	0.00413	0.00039	128.0	128.0	128.0	0	0	1	-29.999999999999996	29.999999999999996								
	109	3076	0.0001	0.01	0.0	83.7	98.6	125.55000000000001	0	0	1	-29.999999999999996	29.999999999999996								
	110	154	0.00688	0.02158	0.0024	137.0	137.0	137.0	0	0	1	-29.999999999999996	29.999999999999996								
	111	135	0.0181	0.05702	0.0062	120.0	120.0	120.0	0	0	1	-29.999999999999996	29.999999999999996								
	112	113	8.0e-5	0.00083	0.0	438.0	438.0	438.0	0	0	1	-29.999999999999996	29.999999999999996								
	113	114	8.0e-5	0.00083	0.0	438.0	438.0	438.0	0	0	1	-29.999999999999996	29.999999999999996								
	113	3438	0.0001	0.01	0.0	107.47	128.97	161.21	0	0	1	-29.999999999999996	29.999999999999996								
	114	131	0.02781	0.07968	0.00807	123.0	123.0	123.0	0	0	1	-29.999999999999996	29.999999999999996								
	114	154	0.00883	0.02792	0.00305	137.0	137.0	137.0	0	0	1	-29.999999999999996	29.999999999999996								
	115	116	8.0e-5	0.00083	0.0	438.0	438.0	438.0	0	0	1	-29.999999999999996	29.999999999999996								
	117	118	8.0e-5	0.00083	0.0	438.0	438.0	438.0	0	0	1	-29.999999999999996	29.999999999999996								
	117	126	0.03025	0.06281	0.00061	102.0	102.0	102.0	0	0	1	-29.999999999999996	29.999999999999996								
	117	153	0.0376	0.12165	0.01249	123.0	123.0	123.0	0	0	1	-29.999999999999996	29.999999999999996								
	117	163	0.00736	0.0238	0.00244	123.0	123.0	123.0	0	0	1	-29.999999999999996	29.999999999999996								
	118	124	0.04124	0.07231	0.00687	69.0	69.0	69.0	0	0	1	-29.999999999999996	29.999999999999996								
	118	129	0.00405	0.01058	0.00109	102.0	102.0	102.0	0	0	1	-29.999999999999996	29.999999999999996								
	118	146	0.00091	0.00306	0.00031	10.0	10.0	10.0	0	0	1	-29.999999999999996	29.999999999999996								
	120	140	0.00851	0.02074	0.00232	102.0	102.0	102.0	0	0	1	-29.999999999999996	29.999999999999996								
	120	152	0.0405	0.09669	0.01016	102.0	102.0	102.0	0	0	1	-29.999999999999996	29.999999999999996								
	121	160	0.05769	0.14545	0.015	76.0	76.0	76.0	0	0	1	-29.999999999999996	29.999999999999996								
	122	123	8.0e-5	0.00083	0.0	438.0	438.0	438.0	0	0	1	-29.999999999999996	29.999999999999996								
	123	167	0.04702	0.07851	0.00808	69.0	69.0	69.0	0	0	1	-29.999999999999996	29.999999999999996								
	124	125	0.00361	0.01166	0.0012	113.99999999999999	113.99999999999999	113.99999999999999	0	0	1	-29.999999999999996	29.999999999999996								
	125	151	0.06898	0.12121	0.01145	78.0	78.0	78.0	0	0	1	-29.999999999999996	29.999999999999996								
	126	144	0.01322	0.03306	0.00327	69.0	69.0	69.0	0	0	1	-29.999999999999996	29.999999999999996								
	127	128	0.00661	0.01372	0.00133	102.0	102.0	102.0	0	0	1	-29.999999999999996	29.999999999999996								
	127	141	0.03545	0.08736	0.00882	101.0	101.0	101.0	0	0	1	-29.999999999999996	29.999999999999996								
	128	132	0.00785	0.01983	0.00203	102.0	102.0	102.0	0	0	1	-29.999999999999996	29.999999999999996								
	130	160	0.03678	0.09347	0.00949	120.0	120.0	120.0	0	0	1	-29.999999999999996	29.999999999999996								
	132	133	8.0e-5	0.00083	0.0	438.0	438.0	438.0	0	0	1	-29.999999999999996	29.999999999999996								
	132	145	0.00926	0.0238	0.00242	69.0	69.0	69.0	0	0	1	-29.999999999999996	29.999999999999996								
	133	135	0.00826	0.02628	0.00286	120.0	120.0	120.0	0	0	1	-29.999999999999996	29.999999999999996								
	133	139	0.0162	0.0338	0.00351	78.0	78.0	78.0	0	0	1	-29.999999999999996	29.999999999999996								
	134	148	0.02901	0.09438	0.00966	123.0	123.0	123.0	0	0	1	-29.999999999999996	29.999999999999996								
	134	156	0.03058	0.05372	0.00508	78.0	78.0	78.0	0	0	1	-29.999999999999996	29.999999999999996								
	136	138	0.02479	0.08	0.00823	123.0	123.0	123.0	0	0	1	-29.999999999999996	29.999999999999996								
	136	2937	0.0001	0.01	0.0	83.7	98.6	125.55000000000001	0	0	1	-29.999999999999996	29.999999999999996								
	137	140	0.02231	0.05702	0.00576	102.0	102.0	102.0	0	0	1	-29.999999999999996	29.999999999999996								
	139	140	8.0e-5	0.00083	0.0	438.0	438.0	438.0	0	0	1	-29.999999999999996	29.999999999999996								
...
];

%%-----  OPF Data  -----%%
%% cost data
%    1    startup    shutdown    n    x1    y1    ...    xn    yn
%    2    startup    shutdown    n    c(n-1)    ...    c0
mpc.gencost = [
	2	0.0	0.0	2	34.01833	0.0
	2	0.0	0.0	2	14.169489	0.0
	2	0.0	0.0	2	23.018748000000002	0.0
	2	0.0	0.0	2	36.544528	0.0
	2	0.0	0.0	2	18.699304	0.0
	2	0.0	0.0	2	24.732738	0.0
	2	0.0	0.0	2	38.459628	0.0
	2	0.0	0.0	2	21.294905	0.0
	2	0.0	0.0	2	33.879274	0.0
	2	0.0	0.0	2	30.040749	0.0
	2	0.0	0.0	2	11.868019	0.0
	2	0.0	0.0	2	38.013323	0.0
	2	0.0	0.0	2	57.755194	0.0
	2	0.0	0.0	2	20.955397	0.0
	2	0.0	0.0	2	41.358554	0.0
	2	0.0	0.0	2	24.946092	0.0
	2	0.0	0.0	2	20.86863	0.0
	2	0.0	0.0	2	23.425268000000003	0.0
	2	0.0	0.0	2	17.228792	0.0
	2	0.0	0.0	2	116.659165	0.0
	2	0.0	0.0	2	43.616773	0.0
	2	0.0	0.0	2	31.315769	0.0
	2	0.0	0.0	2	43.01333	0.0
	2	0.0	0.0	2	118.488919	0.0
	2	0.0	0.0	2	24.946496000000003	0.0
	2	0.0	0.0	2	30.176601	0.0
	2	0.0	0.0	2	18.176637	0.0
	2	0.0	0.0	2	27.605738	0.0
	2	0.0	0.0	2	23.8999	0.0
	2	0.0	0.0	2	15.467216	0.0
	2	0.0	0.0	2	105.413705	0.0
	2	0.0	0.0	2	105.135197	0.0
	2	0.0	0.0	2	47.18343800000001	0.0
	2	0.0	0.0	2	16.381577	0.0
	2	0.0	0.0	2	45.38742899999999	0.0
	2	0.0	0.0	2	29.230218	0.0
	2	0.0	0.0	2	37.861028	0.0
	2	0.0	0.0	2	39.277503	0.0
	2	0.0	0.0	2	46.423125	0.0
	2	0.0	0.0	2	36.942541	0.0
	2	0.0	0.0	2	100.817086	0.0
	2	0.0	0.0	2	45.065421	0.0
	2	0.0	0.0	2	20.009863	0.0
	2	0.0	0.0	2	27.841706	0.0
	2	0.0	0.0	2	16.897706	0.0
	2	0.0	0.0	2	34.237697	0.0
	2	0.0	0.0	2	95.098545	0.0
	2	0.0	0.0	2	6.446180000000001	0.0
	2	0.0	0.0	2	37.480683	0.0
	2	0.0	0.0	2	47.561033	0.0
	2	0.0	0.0	2	27.008941	0.0
	2	0.0	0.0	2	33.404921	0.0
	2	0.0	0.0	2	38.318274	0.0
	2	0.0	0.0	2	105.413929	0.0
	2	0.0	0.0	2	42.525338000000005	0.0
	2	0.0	0.0	2	33.427654	0.0
	2	0.0	0.0	2	101.030008	0.0
	2	0.0	0.0	2	34.121036	0.0
	2	0.0	0.0	2	35.738304	0.0
	2	0.0	0.0	2	7.034986	0.0
	2	0.0	0.0	2	34.644063	0.0
	2	0.0	0.0	2	17.712178	0.0
	2	0.0	0.0	2	54.580014000000006	0.0
	2	0.0	0.0	2	35.537215	0.0
	2	0.0	0.0	2	27.741251	0.0
	2	0.0	0.0	2	23.26421	0.0
	2	0.0	0.0	2	45.17091500000001	0.0
	2	0.0	0.0	2	23.646357	0.0
	2	0.0	0.0	2	31.675463	0.0
	2	0.0	0.0	2	28.944582	0.0
	2	0.0	0.0	2	47.49379	0.0
	2	0.0	0.0	2	23.017204000000003	0.0
	2	0.0	0.0	2	17.768797	0.0
	2	0.0	0.0	2	26.336760000000005	0.0
	2	0.0	0.0	2	42.284317	0.0
	2	0.0	0.0	2	36.806588	0.0
	2	0.0	0.0	2	46.060103	0.0
	2	0.0	0.0	2	25.117270000000005	0.0
	2	0.0	0.0	2	36.948013	0.0
	2	0.0	0.0	2	22.071519	0.0
	2	0.0	0.0	2	31.94982	0.0
	2	0.0	0.0	2	35.932776	0.0
	2	0.0	0.0	2	52.426528	0.0
	2	0.0	0.0	2	20.617686	0.0
	2	0.0	0.0	2	25.034441	0.0
	2	0.0	0.0	2	43.168729000000006	0.0
	2	0.0	0.0	2	11.291275	0.0
	2	0.0	0.0	2	23.026445	0.0
	2	0.0	0.0	2	19.492604	0.0
	2	0.0	0.0	2	39.998259	0.0
	2	0.0	0.0	2	33.478323	0.0
	2	0.0	0.0	2	41.738114	0.0
	2	0.0	0.0	2	26.618034	0.0
	2	0.0	0.0	2	25.671854	0.0
	2	0.0	0.0	2	21.356345	0.0
	2	0.0	0.0	2	20.991881	0.0
	2	0.0	0.0	2	22.257707	0.0
	2	0.0	0.0	2	41.741286	0.0
	2	0.0	0.0	2	18.692814	0.0
	2	0.0	0.0	2	50.544652	0.0
	2	0.0	0.0	2	38.55426	0.0
	2	0.0	0.0	2	13.936755000000002	0.0
	2	0.0	0.0	2	42.051636	0.0
	2	0.0	0.0	2	27.097263	0.0
	2	0.0	0.0	2	107.996893	0.0
	2	0.0	0.0	2	34.873074	0.0
	2	0.0	0.0	2	32.143842	0.0
	2	0.0	0.0	2	95.67903000000001	0.0
	2	0.0	0.0	2	51.08461	0.0
	2	0.0	0.0	2	48.375747000000004	0.0
	2	0.0	0.0	2	135.23841	0.0
	2	0.0	0.0	2	35.389108	0.0
	2	0.0	0.0	2	18.72144	0.0
	2	0.0	0.0	2	102.24456	0.0
	2	0.0	0.0	2	44.538821	0.0
	2	0.0	0.0	2	26.674243	0.0
	2	0.0	0.0	2	97.940159	0.0
	2	0.0	0.0	2	121.327601	0.0
	2	0.0	0.0	2	25.358864	0.0
	2	0.0	0.0	2	34.693301	0.0
	2	0.0	0.0	2	16.20078	0.0
	2	0.0	0.0	2	35.009557	0.0
	2	0.0	0.0	2	48.662458	0.0
	2	0.0	0.0	2	27.582743	0.0
	2	0.0	0.0	2	17.082825	0.0
	2	0.0	0.0	2	99.251941	0.0
	2	0.0	0.0	2	28.932327	0.0
	2	0.0	0.0	2	21.556969	0.0
	2	0.0	0.0	2	29.643795	0.0
	2	0.0	0.0	2	15.778189	0.0
	2	0.0	0.0	2	29.934834000000002	0.0
	2	0.0	0.0	2	42.955993	0.0
	2	0.0	0.0	2	28.429944000000003	0.0
	2	0.0	0.0	2	24.541088000000002	0.0
	2	0.0	0.0	2	31.151164000000005	0.0
	2	0.0	0.0	2	32.533861	0.0
	2	0.0	0.0	2	20.9929	0.0
	2	0.0	0.0	2	34.019176	0.0
	2	0.0	0.0	2	41.68313200000001	0.0
	2	0.0	0.0	2	21.595456	0.0
	2	0.0	0.0	2	30.53651	0.0
	2	0.0	0.0	2	30.978552	0.0
	2	0.0	0.0	2	60.309374	0.0
	2	0.0	0.0	2	50.127172	0.0
	2	0.0	0.0	2	23.804996000000003	0.0
	2	0.0	0.0	2	103.888135	0.0
	2	0.0	0.0	2	16.414005	0.0
	2	0.0	0.0	2	44.338124	0.0
	2	0.0	0.0	2	38.483821	0.0
	2	0.0	0.0	2	27.539997	0.0
	2	0.0	0.0	2	5.764857000000001	0.0
	2	0.0	0.0	2	24.295203	0.0
	2	0.0	0.0	2	39.63888	0.0
	2	0.0	0.0	2	122.808844	0.0
	2	0.0	0.0	2	22.317076000000004	0.0
	2	0.0	0.0	2	10.697315	0.0
	2	0.0	0.0	2	110.126915	0.0
	2	0.0	0.0	2	107.099554	0.0
	2	0.0	0.0	2	11.397005	0.0
	2	0.0	0.0	2	35.388843	0.0
	2	0.0	0.0	2	32.053849	0.0
	2	0.0	0.0	2	29.25283	0.0
	2	0.0	0.0	2	11.180959	0.0
	2	0.0	0.0	2	41.375782	0.0
	2	0.0	0.0	2	114.778673	0.0
	2	0.0	0.0	2	29.540266	0.0
	2	0.0	0.0	2	21.408639000000004	0.0
	2	0.0	0.0	2	44.554404	0.0
	2	0.0	0.0	2	118.968338	0.0
	2	0.0	0.0	2	28.786295	0.0
	2	0.0	0.0	2	29.612032	0.0
	2	0.0	0.0	2	107.498585	0.0
	2	0.0	0.0	2	27.229507000000005	0.0
	2	0.0	0.0	2	32.93079	0.0
	2	0.0	0.0	2	31.854830000000003	0.0
	2	0.0	0.0	2	41.57216600000001	0.0
	2	0.0	0.0	2	35.076258	0.0
	2	0.0	0.0	2	45.643443	0.0
	2	0.0	0.0	2	30.709151	0.0
	2	0.0	0.0	2	41.876874	0.0
	2	0.0	0.0	2	23.850696	0.0
	2	0.0	0.0	2	36.915998	0.0
	2	0.0	0.0	2	9.640348	0.0
	2	0.0	0.0	2	23.515752	0.0
	2	0.0	0.0	2	25.63343	0.0
	2	0.0	0.0	2	37.853951	0.0
	2	0.0	0.0	2	22.043766	0.0
	2	0.0	0.0	2	31.410565	0.0
	2	0.0	0.0	2	23.715808	0.0
	2	0.0	0.0	2	37.743915	0.0
	2	0.0	0.0	2	21.492971000000004	0.0
	2	0.0	0.0	2	63.534478	0.0
	2	0.0	0.0	2	44.427651	0.0
	2	0.0	0.0	2	31.62013	0.0
	2	0.0	0.0	2	34.10763	0.0
	2	0.0	0.0	2	23.508294000000003	0.0
	2	0.0	0.0	2	39.861158	0.0
	2	0.0	0.0	2	36.941739	0.0
	2	0.0	0.0	2	34.18636	0.0
	2	0.0	0.0	2	30.130740000000003	0.0
...
];

